Original_Dataset_Offline_Edition_1/Network_10O-10/scenario_7/case.raw
0,100.0,33,0,1,60.0
GRID OPTIMIZATION COMPETITION
INPUT DATA FILES ARE RAW ROP INL CON
1,'19155031900',69.0,3,1,1,1,1.0,0.0,1.099,0.899,1.099,0.899
2,'19193003600',138.0,2,1,1,1,1.0,0.0,1.099,0.899,1.099,0.899
3,'19115450100',69.0,2,1,1,1,1.0,0.0,1.099,0.899,1.099,0.899
4,'19179960200',69.0,2,1,1,1,1.0,0.0,1.099,0.899,1.099,0.899
5,'19193002102',69.0,2,1,1,1,1.0,0.0,1.099,0.899,1.099,0.899
6,'19113010600',69.0,2,1,1,1,1.0,0.0,1.099,0.899,1.099,0.899
7,'19033950700',69.0,2,1,1,1,1.0,0.0,1.099,0.899,1.099,0.899
8,'19153003902',69.0,2,1,1,1,1.0,0.0,1.099,0.899,1.099,0.899
9,'19005960100',69.0,2,1,1,1,1.0,0.0,1.099,0.899,1.099,0.899
10,'19131560100',69.0,2,1,1,1,1.0,0.0,1.099,0.899,1.099,0.899
11,'19139051000',69.0,2,1,1,1,1.0,0.0,1.099,0.899,1.099,0.899
12,'19013001501',69.0,2,1,1,1,1.0,0.0,1.099,0.899,1.099,0.899
13,'19151780300',138.0,2,1,1,1,1.0,0.0,1.099,0.899,1.099,0.899
14,'19113010700',69.0,2,1,1,1,1.0,0.0,1.099,0.899,1.099,0.899
15,'19113003002',69.0,2,1,1,1,1.0,0.0,1.099,0.899,1.099,0.899
16,'19197680400',69.0,2,1,1,1,1.0,0.0,1.099,0.899,1.099,0.899
17,'19045000200',345.0,2,1,1,1,1.0,0.0,1.099,0.899,1.099,0.899
18,'19057000700',69.0,2,1,1,1,1.0,0.0,1.099,0.899,1.099,0.899
19,'19081270100',345.0,2,1,1,1,1.0,0.0,1.099,0.899,1.099,0.899
20,'19069360200',69.0,2,1,1,1,1.0,0.0,1.099,0.899,1.099,0.899
21,'19127950500',69.0,2,1,1,1,1.0,0.0,1.099,0.899,1.099,0.899
22,'19021960600',69.0,2,1,1,1,1.0,0.0,1.099,0.899,1.099,0.899
23,'19009070300',69.0,2,1,1,1,1.0,0.0,1.099,0.899,1.099,0.899
24,'19045000300',69.0,2,1,1,1,1.0,0.0,1.099,0.899,1.099,0.899
25,'19153010802',69.0,2,1,1,1,1.0,0.0,1.099,0.899,1.099,0.899
26,'19001960100',69.0,2,1,1,1,1.0,0.0,1.099,0.899,1.099,0.899
27,'19195690100',230.0,2,1,1,1,1.0,0.0,1.099,0.899,1.099,0.899
28,'19153011702',69.0,2,1,1,1,1.0,0.0,1.099,0.899,1.099,0.899
29,'19155021502',69.0,2,1,1,1,1.0,0.0,1.099,0.899,1.099,0.899
30,'19027960300',69.0,2,1,1,1,1.0,0.0,1.099,0.899,1.099,0.899
31,'19081270300',345.0,2,1,1,1,1.0,0.0,1.099,0.899,1.099,0.899
32,'19127950200',69.0,2,1,1,1,1.0,0.0,1.099,0.899,1.099,0.899
33,'19169010500',69.0,2,1,1,1,1.0,0.0,1.099,0.899,1.099,0.899
34,'19163013702',69.0,2,1,1,1,1.0,0.0,1.099,0.899,1.099,0.899
35,'19153005100',69.0,2,1,1,1,1.0,0.0,1.099,0.899,1.099,0.899
36,'19111490900',69.0,2,1,1,1,1.0,0.0,1.099,0.899,1.099,0.899
37,'19127950900',69.0,2,1,1,1,1.0,0.0,1.099,0.899,1.099,0.899
38,'19035080400',69.0,2,1,1,1,1.0,0.0,1.099,0.899,1.099,0.899
39,'19169000900',69.0,2,1,1,1,1.0,0.0,1.099,0.899,1.099,0.899
40,'19059450200',69.0,2,1,1,1,1.0,0.0,1.099,0.899,1.099,0.899
41,'27105105500',69.0,2,1,1,1,1.0,0.0,1.099,0.899,1.099,0.899
42,'19089960300',69.0,2,1,1,1,1.0,0.0,1.099,0.899,1.099,0.899
43,'19047070100',69.0,2,1,1,1,1.0,0.0,1.099,0.899,1.099,0.899
44,'19081270200',138.0,2,1,1,1,1.0,0.0,1.099,0.899,1.099,0.899
45,'19033950102',69.0,2,1,1,1,1.0,0.0,1.099,0.899,1.099,0.899
46,'19175190400',69.0,2,1,1,1,1.0,0.0,1.099,0.899,1.099,0.899
47,'19113001900',69.0,2,1,1,1,1.0,0.0,1.099,0.899,1.099,0.899
48,'19041080300',69.0,2,1,1,1,1.0,0.0,1.099,0.899,1.099,0.899
49,'19021960200',69.0,2,1,1,1,1.0,0.0,1.099,0.899,1.099,0.899
50,'19195690300',138.0,2,1,1,1,1.0,0.0,1.099,0.899,1.099,0.899
51,'19195690200',69.0,2,1,1,1,1.0,0.0,1.099,0.899,1.099,0.899
52,'19057000600',69.0,2,1,1,1,1.0,0.0,1.099,0.899,1.099,0.899
53,'19057000300',69.0,2,1,1,1,1.0,0.0,1.099,0.899,1.099,0.899
54,'19169001000',69.0,2,1,1,1,1.0,0.0,1.099,0.899,1.099,0.899
55,'19067480400',69.0,2,1,1,1,1.0,0.0,1.099,0.899,1.099,0.899
56,'19103000200',230.0,2,1,1,1,1.0,0.0,1.099,0.899,1.099,0.899
57,'19061000100',69.0,2,1,1,1,1.0,0.0,1.099,0.899,1.099,0.899
58,'19189680200',69.0,2,1,1,1,1.0,0.0,1.099,0.899,1.099,0.899
59,'17161024103',69.0,2,1,1,1,1.0,0.0,1.099,0.899,1.099,0.899
60,'19007950300',69.0,2,1,1,1,1.0,0.0,1.099,0.899,1.099,0.899
61,'19181021000',69.0,2,1,1,1,1.0,0.0,1.099,0.899,1.099,0.899
62,'19111491000',69.0,2,1,1,1,1.0,0.0,1.099,0.899,1.099,0.899
63,'19143460200',69.0,2,1,1,1,1.0,0.0,1.099,0.899,1.099,0.899
64,'19157370300',69.0,2,1,1,1,1.0,0.0,1.099,0.899,1.099,0.899
65,'19169000800',69.0,2,1,1,1,1.0,0.0,1.099,0.899,1.099,0.899
66,'19059451100',69.0,2,1,1,1,1.0,0.0,1.099,0.899,1.099,0.899
67,'19013002303',69.0,2,1,1,1,1.0,0.0,1.099,0.899,1.099,0.899
68,'19033950900',69.0,2,1,1,1,1.0,0.0,1.099,0.899,1.099,0.899
69,'19135070100',69.0,2,1,1,1,1.0,0.0,1.099,0.899,1.099,0.899
70,'19067480500',138.0,2,1,1,1,1.0,0.0,1.099,0.899,1.099,0.899
71,'19111490800',69.0,2,1,1,1,1.0,0.0,1.099,0.899,1.099,0.899
72,'19033950800',69.0,2,1,1,1,1.0,0.0,1.099,0.899,1.099,0.899
73,'19125030200',69.0,2,1,1,1,1.0,0.0,1.099,0.899,1.099,0.899
74,'19087970300',69.0,2,1,1,1,1.0,0.0,1.099,0.899,1.099,0.899
75,'19041080200',69.0,2,1,1,1,1.0,0.0,1.099,0.899,1.099,0.899
76,'19113002200',69.0,2,1,1,1,1.0,0.0,1.099,0.899,1.099,0.899
77,'19189680300',69.0,2,1,1,1,1.0,0.0,1.099,0.899,1.099,0.899
78,'19079960300',69.0,2,1,1,1,1.0,0.0,1.099,0.899,1.099,0.899
79,'19147960400',69.0,2,1,1,1,1.0,0.0,1.099,0.899,1.099,0.899
80,'19145490200',69.0,2,1,1,1,1.0,0.0,1.099,0.899,1.099,0.899
81,'19189680100',345.0,2,1,1,1,1.0,0.0,1.099,0.899,1.099,0.899
82,'17141961700',69.0,2,1,1,1,1.0,0.0,1.099,0.899,1.099,0.899
83,'17197884004',69.0,2,1,1,1,1.0,0.0,1.099,0.899,1.099,0.899
84,'17099962500',69.0,2,1,1,1,1.0,0.0,1.099,0.899,1.099,0.899
85,'19045000800',69.0,2,1,1,1,1.0,0.0,1.099,0.899,1.099,0.899
86,'17063000700',69.0,2,1,1,1,1.0,0.0,1.099,0.899,1.099,0.899
87,'17157950700',69.0,2,1,1,1,1.0,0.0,1.099,0.899,1.099,0.899
88,'17179020900',69.0,2,1,1,1,1.0,0.0,1.099,0.899,1.099,0.899
89,'17197883307',69.0,2,1,1,1,1.0,0.0,1.099,0.899,1.099,0.899
90,'17197882900',69.0,2,1,1,1,1.0,0.0,1.099,0.899,1.099,0.899
91,'17021958200',69.0,2,1,1,1,1.0,0.0,1.099,0.899,1.099,0.899
92,'17043841604',69.0,2,1,1,1,1.0,0.0,1.099,0.899,1.099,0.899
93,'17197880502',69.0,2,1,1,1,1.0,0.0,1.099,0.899,1.099,0.899
94,'17197883212',69.0,2,1,1,1,1.0,0.0,1.099,0.899,1.099,0.899
95,'17079977500',69.0,2,1,1,1,1.0,0.0,1.099,0.899,1.099,0.899
96,'17039971500',69.0,2,1,1,1,1.0,0.0,1.099,0.899,1.099,0.899
97,'17127970200',69.0,2,1,1,1,1.0,0.0,1.099,0.899,1.099,0.899
98,'17135958000',69.0,2,1,1,1,1.0,0.0,1.099,0.899,1.099,0.899
99,'17103000200',69.0,2,1,1,1,1.0,0.0,1.099,0.899,1.099,0.899
100,'17179020800',69.0,2,1,1,1,1.0,0.0,1.099,0.899,1.099,0.899
101,'17197883606',69.0,2,1,1,1,1.0,0.0,1.099,0.899,1.099,0.899
102,'17049950200',69.0,2,1,1,1,1.0,0.0,1.099,0.899,1.099,0.899
103,'17197883509',69.0,2,1,1,1,1.0,0.0,1.099,0.899,1.099,0.899
104,'17147954500',69.0,2,1,1,1,1.0,0.0,1.099,0.899,1.099,0.899
105,'17097862200',69.0,2,1,1,1,1.0,0.0,1.099,0.899,1.099,0.899
106,'17077010300',69.0,2,1,1,1,1.0,0.0,1.099,0.899,1.099,0.899
107,'17167002500',69.0,2,1,1,1,1.0,0.0,1.099,0.899,1.099,0.899
108,'17161020100',69.0,2,1,1,1,1.0,0.0,1.099,0.899,1.099,0.899
109,'17031830500',138.0,2,1,1,1,1.0,0.0,1.099,0.899,1.099,0.899
110,'17097860101',69.0,2,1,1,1,1.0,0.0,1.099,0.899,1.099,0.899
111,'17119400700',69.0,2,1,1,1,1.0,0.0,1.099,0.899,1.099,0.899
112,'17031804507',69.0,2,1,1,1,1.0,0.0,1.099,0.899,1.099,0.899
113,'17119402400',69.0,2,1,1,1,1.0,0.0,1.099,0.899,1.099,0.899
114,'17125956500',69.0,2,1,1,1,1.0,0.0,1.099,0.899,1.099,0.899
115,'17035972600',69.0,2,1,1,1,1.0,0.0,1.099,0.899,1.099,0.899
116,'17025972000',69.0,2,1,1,1,1.0,0.0,1.099,0.899,1.099,0.899
117,'17057953700',138.0,2,1,1,1,1.0,0.0,1.099,0.899,1.099,0.899
118,'17089850400',69.0,2,1,1,1,1.0,0.0,1.099,0.899,1.099,0.899
119,'17031520200',69.0,2,1,1,1,1.0,0.0,1.099,0.899,1.099,0.899
120,'17145030200',69.0,2,1,1,1,1.0,0.0,1.099,0.899,1.099,0.899
121,'17031310500',69.0,1,1,1,1,1.0,0.0,1.099,0.899,1.099,0.899
122,'17197882601',69.0,2,1,1,1,1.0,0.0,1.099,0.899,1.099,0.899
123,'17197883811',69.0,2,1,1,1,1.0,0.0,1.099,0.899,1.099,0.899
124,'17197883602',69.0,2,1,1,1,1.0,0.0,1.099,0.899,1.099,0.899
125,'17115001000',69.0,2,1,1,1,1.0,0.0,1.099,0.899,1.099,0.899
126,'17201002200',69.0,2,1,1,1,1.0,0.0,1.099,0.899,1.099,0.899
127,'17031838800',69.0,2,1,1,1,1.0,0.0,1.099,0.899,1.099,0.899
128,'17011965200',69.0,2,1,1,1,1.0,0.0,1.099,0.899,1.099,0.899
129,'17127970100',69.0,2,1,1,1,1.0,0.0,1.099,0.899,1.099,0.899
130,'17105960200',69.0,2,1,1,1,1.0,0.0,1.099,0.899,1.099,0.899
131,'17031310400',69.0,1,1,1,1,1.0,0.0,1.099,0.899,1.099,0.899
132,'17199021400',138.0,1,1,1,1,1.0,0.0,1.099,0.899,1.099,0.899
133,'17121951700',69.0,2,1,1,1,1.0,0.0,1.099,0.899,1.099,0.899
134,'17053962000',69.0,2,1,1,1,1.0,0.0,1.099,0.899,1.099,0.899
135,'17125956400',69.0,2,1,1,1,1.0,0.0,1.099,0.899,1.099,0.899
136,'17037001800',230.0,2,1,1,1,1.0,0.0,1.099,0.899,1.099,0.899
137,'17099963700',69.0,2,1,1,1,1.0,0.0,1.099,0.899,1.099,0.899
138,'17063000600',69.0,2,1,1,1,1.0,0.0,1.099,0.899,1.099,0.899
139,'17113005101',69.0,2,1,1,1,1.0,0.0,1.099,0.899,1.099,0.899
140,'17113001105',69.0,2,1,1,1,1.0,0.0,1.099,0.899,1.099,0.899
141,'17183000900',69.0,2,1,1,1,1.0,0.0,1.099,0.899,1.099,0.899
142,'17183001300',69.0,2,1,1,1,1.0,0.0,1.099,0.899,1.099,0.899
143,'17063000103',69.0,2,1,1,1,1.0,0.0,1.099,0.899,1.099,0.899
144,'17201002100',69.0,2,1,1,1,1.0,0.0,1.099,0.899,1.099,0.899
145,'17119401500',69.0,2,1,1,1,1.0,0.0,1.099,0.899,1.099,0.899
146,'17199021300',69.0,2,1,1,1,1.0,0.0,1.099,0.899,1.099,0.899
147,'17123961300',69.0,2,1,1,1,1.0,0.0,1.099,0.899,1.099,0.899
148,'17167000504',69.0,2,1,1,1,1.0,0.0,1.099,0.899,1.099,0.899
149,'17171970700',69.0,2,1,1,1,1.0,0.0,1.099,0.899,1.099,0.899
150,'17097861702',69.0,2,1,1,1,1.0,0.0,1.099,0.899,1.099,0.899
151,'17105960300',230.0,2,1,1,1,1.0,0.0,1.099,0.899,1.099,0.899
152,'17177000300',69.0,2,1,1,1,1.0,0.0,1.099,0.899,1.099,0.899
153,'17179022000',69.0,2,1,1,1,1.0,0.0,1.099,0.899,1.099,0.899
154,'17119400952',69.0,2,1,1,1,1.0,0.0,1.099,0.899,1.099,0.899
155,'17099961900',69.0,2,1,1,1,1.0,0.0,1.099,0.899,1.099,0.899
156,'17119400102',138.0,2,1,1,1,1.0,0.0,1.099,0.899,1.099,0.899
157,'17161024500',69.0,2,1,1,1,1.0,0.0,1.099,0.899,1.099,0.899
158,'17011965500',69.0,2,1,1,1,1.0,0.0,1.099,0.899,1.099,0.899
159,'17051950500',69.0,2,1,1,1,1.0,0.0,1.099,0.899,1.099,0.899
160,'17099963400',69.0,2,1,1,1,1.0,0.0,1.099,0.899,1.099,0.899
161,'17115000200',69.0,2,1,1,1,1.0,0.0,1.099,0.899,1.099,0.899
162,'17019000500',69.0,2,1,1,1,1.0,0.0,1.099,0.899,1.099,0.899
163,'17011965400',69.0,2,1,1,1,1.0,0.0,1.099,0.899,1.099,0.899
164,'17103000900',69.0,2,1,1,1,1.0,0.0,1.099,0.899,1.099,0.899
165,'17143000500',69.0,2,1,1,1,1.0,0.0,1.099,0.899,1.099,0.899
166,'17031820400',69.0,2,1,1,1,1.0,0.0,1.099,0.899,1.099,0.899
167,'17011965000',69.0,2,1,1,1,1.0,0.0,1.099,0.899,1.099,0.899
168,'17119400600',69.0,2,1,1,1,1.0,0.0,1.099,0.899,1.099,0.899
169,'17031833300',69.0,2,1,1,1,1.0,0.0,1.099,0.899,1.099,0.899
170,'17019010100',69.0,2,1,1,1,1.0,0.0,1.099,0.899,1.099,0.899
171,'17099963300',69.0,2,1,1,1,1.0,0.0,1.099,0.899,1.099,0.899
172,'17089852500',138.0,2,1,1,1,1.0,0.0,1.099,0.899,1.099,0.899
173,'17167000503',69.0,2,1,1,1,1.0,0.0,1.099,0.899,1.099,0.899
174,'17019000402',69.0,2,1,1,1,1.0,0.0,1.099,0.899,1.099,0.899
175,'17073030300',138.0,2,1,1,1,1.0,0.0,1.099,0.899,1.099,0.899
176,'17149952800',69.0,2,1,1,1,1.0,0.0,1.099,0.899,1.099,0.899
177,'17031283800',69.0,2,1,1,1,1.0,0.0,1.099,0.899,1.099,0.899
178,'17043841320',69.0,2,1,1,1,1.0,0.0,1.099,0.899,1.099,0.899
179,'27141030404',69.0,2,1,1,1,1.0,0.0,1.099,0.899,1.099,0.899
180,'27049080200',69.0,2,1,1,1,1.0,0.0,1.099,0.899,1.099,0.899
181,'27061480900',69.0,2,1,1,1,1.0,0.0,1.099,0.899,1.099,0.899
182,'27171100203',69.0,2,1,1,1,1.0,0.0,1.099,0.899,1.099,0.899
183,'27123036000',69.0,2,1,1,1,1.0,0.0,1.099,0.899,1.099,0.899
184,'27163070801',69.0,2,1,1,1,1.0,0.0,1.099,0.899,1.099,0.899
185,'27053100500',69.0,1,1,1,1,1.0,0.0,1.099,0.899,1.099,0.899
186,'27165950300',69.0,2,1,1,1,1.0,0.0,1.099,0.899,1.099,0.899
187,'27103480600',69.0,2,1,1,1,1.0,0.0,1.099,0.899,1.099,0.899
188,'27099001200',69.0,2,1,1,1,1.0,0.0,1.099,0.899,1.099,0.899
189,'27049080600',69.0,2,1,1,1,1.0,0.0,1.099,0.899,1.099,0.899
190,'27131070901',69.0,2,1,1,1,1.0,0.0,1.099,0.899,1.099,0.899
191,'27139080301',69.0,2,1,1,1,1.0,0.0,1.099,0.899,1.099,0.899
192,'27053025301',69.0,2,1,1,1,1.0,0.0,1.099,0.899,1.099,0.899
193,'27163071209',69.0,2,1,1,1,1.0,0.0,1.099,0.899,1.099,0.899
194,'27037060508',69.0,2,1,1,1,1.0,0.0,1.099,0.899,1.099,0.899
195,'27037060748',69.0,2,1,1,1,1.0,0.0,1.099,0.899,1.099,0.899
196,'27075370100',69.0,2,1,1,1,1.0,0.0,1.099,0.899,1.099,0.899
197,'27053026018',69.0,2,1,1,1,1.0,0.0,1.099,0.899,1.099,0.899
198,'27101900200',69.0,2,1,1,1,1.0,0.0,1.099,0.899,1.099,0.899
199,'27105105100',69.0,2,1,1,1,1.0,0.0,1.099,0.899,1.099,0.899
200,'27141030503',69.0,2,1,1,1,1.0,0.0,1.099,0.899,1.099,0.899
...
0 / END OF BUS DATA BEGIN LOAD DATA
1,'1',1,1,1,14.57,4.0,0.0,0.0,0.0,0.0,1,1,0
2,'1',1,1,1,47.6,4.39,0.0,0.0,0.0,0.0,1,1,0
3,'1',1,1,1,2.58,0.92,0.0,0.0,0.0,0.0,1,1,0
4,'1',1,1,1,2.07,0.82,0.0,0.0,0.0,0.0,1,1,0
5,'1',1,1,1,8.27,2.14,0.0,0.0,0.0,0.0,1,1,0
6,'1',1,1,1,5.04,2.06,0.0,0.0,0.0,0.0,1,1,0
7,'1',1,1,1,9.72,2.5,0.0,0.0,0.0,0.0,1,1,0
8,'1',1,1,1,3.45,1.41,0.0,0.0,0.0,0.0,1,1,0
9,'1',1,1,1,2.73,0.91,0.0,0.0,0.0,0.0,1,1,0
10,'1',1,1,1,5.36,1.61,0.0,0.0,0.0,0.0,1,1,0
11,'1',1,1,1,26.37,5.25,0.0,0.0,0.0,0.0,1,1,0
12,'1',1,1,1,2.54,0.93,0.0,0.0,0.0,0.0,1,1,0
13,'1',1,1,1,3.83,1.06,0.0,0.0,0.0,0.0,1,1,0
14,'1',1,1,1,10.07,3.04,0.0,0.0,0.0,0.0,1,1,0
15,'1',1,1,1,77.3,9.87,0.0,0.0,0.0,0.0,1,1,0
16,'1',1,1,1,1.48,0.47,0.0,0.0,0.0,0.0,1,1,0
17,'1',1,1,1,37.23,7.82,0.0,0.0,0.0,0.0,1,1,0
18,'1',1,1,1,4.98,1.2,0.0,0.0,0.0,0.0,1,1,0
19,'1',1,1,1,16.3,15.0,0.0,0.0,0.0,0.0,1,1,0
20,'1',1,1,1,22.35,3.28,0.0,0.0,0.0,0.0,1,1,0
21,'1',1,1,1,14.61,3.25,0.0,0.0,0.0,0.0,1,1,0
22,'1',1,1,1,5.19,1.69,0.0,0.0,0.0,0.0,1,1,0
23,'1',1,1,1,1.4,0.46,0.0,0.0,0.0,0.0,1,1,0
24,'1',1,1,1,3.27,1.35,0.0,0.0,0.0,0.0,1,1,0
25,'1',1,1,1,11.08,2.53,0.0,0.0,0.0,0.0,1,1,0
26,'1',1,1,1,4.83,1.53,0.0,0.0,0.0,0.0,1,1,0
27,'1',1,1,1,9.49,1.8,0.0,0.0,0.0,0.0,1,1,0
28,'1',1,1,1,9.53,2.16,0.0,0.0,0.0,0.0,1,1,0
29,'1',1,1,1,3.47,1.1,0.0,0.0,0.0,0.0,1,1,0
30,'1',1,1,1,5.07,1.82,0.0,0.0,0.0,0.0,1,1,0
31,'1',1,1,1,7.83,1.33,0.0,0.0,0.0,0.0,1,1,0
32,'1',1,1,1,3.08,1.1,0.0,0.0,0.0,0.0,1,1,0
33,'1',1,1,1,1.92,0.61,0.0,0.0,0.0,0.0,1,1,0
34,'1',1,1,1,43.81,8.45,0.0,0.0,0.0,0.0,1,1,0
35,'1',1,1,1,39.11,9.32,0.0,0.0,0.0,0.0,1,1,0
36,'1',1,1,1,1.73,0.69,0.0,0.0,0.0,0.0,1,1,0
37,'1',1,1,1,13.29,2.15,0.0,0.0,0.0,0.0,1,1,0
38,'1',1,1,1,6.97,1.8,0.0,0.0,0.0,0.0,1,1,0
39,'1',1,1,1,8.0,1.88,0.0,0.0,0.0,0.0,1,1,0
40,'1',1,1,1,6.42,1.84,0.0,0.0,0.0,0.0,1,1,0
41,'1',1,1,1,7.82,1.74,0.0,0.0,0.0,0.0,1,1,0
42,'1',1,1,1,7.79,1.58,0.0,0.0,0.0,0.0,1,1,0
43,'1',1,1,1,1.32,0.54,0.0,0.0,0.0,0.0,1,1,0
44,'1',1,1,1,10.17,2.5,0.0,0.0,0.0,0.0,1,1,0
45,'1',1,1,1,6.21,1.83,0.0,0.0,0.0,0.0,1,1,0
46,'1',1,1,1,3.43,1.01,0.0,0.0,0.0,0.0,1,1,0
47,'1',1,1,1,17.42,4.34,0.0,0.0,0.0,0.0,1,1,0
48,'1',1,1,1,10.95,2.8,0.0,0.0,0.0,0.0,1,1,0
49,'1',1,1,1,2.47,0.58,0.0,0.0,0.0,0.0,1,1,0
50,'1',1,1,1,8.27,2.36,0.0,0.0,0.0,0.0,1,1,0
51,'1',1,1,1,9.97,2.12,0.0,0.0,0.0,0.0,1,1,0
52,'1',1,1,1,2.53,1.03,0.0,0.0,0.0,0.0,1,1,0
53,'1',1,1,1,13.94,2.61,0.0,0.0,0.0,0.0,1,1,0
54,'1',1,1,1,23.42,5.81,0.0,0.0,0.0,0.0,1,1,0
55,'1',1,1,1,3.72,1.06,0.0,0.0,0.0,0.0,1,1,0
56,'1',1,1,1,7.75,2.4,0.0,0.0,0.0,0.0,1,1,0
57,'1',1,1,1,38.33,7.78,0.0,0.0,0.0,0.0,1,1,0
58,'1',1,1,1,3.48,1.04,0.0,0.0,0.0,0.0,1,1,0
59,'1',1,1,1,11.21,3.61,0.0,0.0,0.0,0.0,1,1,0
60,'1',1,1,1,5.57,1.64,0.0,0.0,0.0,0.0,1,1,0
61,'1',1,1,1,4.01,1.19,0.0,0.0,0.0,0.0,1,1,0
62,'1',1,1,1,1.48,0.55,0.0,0.0,0.0,0.0,1,1,0
63,'1',1,1,1,15.49,2.41,0.0,0.0,0.0,0.0,1,1,0
64,'1',1,1,1,4.41,1.35,0.0,0.0,0.0,0.0,1,1,0
65,'1',1,1,1,11.13,3.65,0.0,0.0,0.0,0.0,1,1,0
66,'1',1,1,1,3.78,1.11,0.0,0.0,0.0,0.0,1,1,0
67,'1',1,1,1,3.1,1.33,0.0,0.0,0.0,0.0,1,1,0
68,'1',1,1,1,1.68,0.54,0.0,0.0,0.0,0.0,1,1,0
69,'1',1,1,1,52.34,10.55,0.0,0.0,0.0,0.0,1,1,0
70,'1',1,1,1,38.52,4.14,0.0,0.0,0.0,0.0,1,1,0
71,'1',1,1,1,28.66,3.48,0.0,0.0,0.0,0.0,1,1,0
72,'1',1,1,1,3.99,1.29,0.0,0.0,0.0,0.0,1,1,0
73,'1',1,1,1,16.47,4.19,0.0,0.0,0.0,0.0,1,1,0
74,'1',1,1,1,12.87,2.55,0.0,0.0,0.0,0.0,1,1,0
75,'1',1,1,1,6.16,1.97,0.0,0.0,0.0,0.0,1,1,0
76,'1',1,1,1,6.37,1.64,0.0,0.0,0.0,0.0,1,1,0
77,'1',1,1,1,14.01,3.24,0.0,0.0,0.0,0.0,1,1,0
78,'1',1,1,1,8.59,1.41,0.0,0.0,0.0,0.0,1,1,0
79,'1',1,1,1,1.96,0.73,0.0,0.0,0.0,0.0,1,1,0
80,'1',1,1,1,6.5,1.63,0.0,0.0,0.0,0.0,1,1,0
81,'1',1,1,1,13.67,2.83,0.0,0.0,0.0,0.0,1,1,0
82,'1',1,1,1,10.3,2.23,0.0,0.0,0.0,0.0,1,1,0
83,'1',1,1,1,3.55,0.98,0.0,0.0,0.0,0.0,1,1,0
84,'1',1,1,1,6.94,1.63,0.0,0.0,0.0,0.0,1,1,0
85,'1',1,1,1,60.48,12.03,0.0,0.0,0.0,0.0,1,1,0
86,'1',1,1,1,21.49,4.23,0.0,0.0,0.0,0.0,1,1,0
87,'1',1,1,1,6.13,1.65,0.0,0.0,0.0,0.0,1,1,0
88,'1',1,1,1,30.23,3.88,0.0,0.0,0.0,0.0,1,1,0
89,'1',1,1,1,10.75,2.81,0.0,0.0,0.0,0.0,1,1,0
90,'1',1,1,1,32.61,5.85,0.0,0.0,0.0,0.0,1,1,0
91,'1',1,1,1,11.06,2.9,0.0,0.0,0.0,0.0,1,1,0
92,'1',1,1,1,3.59,1.37,0.0,0.0,0.0,0.0,1,1,0
93,'1',1,1,1,18.01,5.83,0.0,0.0,0.0,0.0,1,1,0
94,'1',1,1,1,3.7,1.49,0.0,0.0,0.0,0.0,1,1,0
95,'1',1,1,1,21.01,6.19,0.0,0.0,0.0,0.0,1,1,0
96,'1',1,1,1,20.24,4.22,0.0,0.0,0.0,0.0,1,1,0
97,'1',1,1,1,5.57,1.99,0.0,0.0,0.0,0.0,1,1,0
98,'1',1,1,1,8.86,2.63,0.0,0.0,0.0,0.0,1,1,0
99,'1',1,1,1,14.1,3.01,0.0,0.0,0.0,0.0,1,1,0
100,'1',1,1,1,7.77,2.17,0.0,0.0,0.0,0.0,1,1,0
101,'1',1,1,1,8.53,2.01,0.0,0.0,0.0,0.0,1,1,0
102,'1',1,1,1,7.48,2.37,0.0,0.0,0.0,0.0,1,1,0
103,'1',1,1,1,9.77,3.05,0.0,0.0,0.0,0.0,1,1,0
104,'1',1,1,1,13.33,3.21,0.0,0.0,0.0,0.0,1,1,0
105,'1',1,1,1,20.63,3.64,0.0,0.0,0.0,0.0,1,1,0
106,'1',1,1,1,8.44,6.0,0.0,0.0,0.0,0.0,1,1,0
107,'1',1,1,1,5.93,1.87,0.0,0.0,0.0,0.0,1,1,0
108,'1',1,1,1,51.52,7.58,0.0,0.0,0.0,0.0,1,1,0
109,'1',1,1,1,26.18,6.67,0.0,0.0,0.0,0.0,1,1,0
110,'1',1,1,1,27.53,7.17,0.0,0.0,0.0,0.0,1,1,0
111,'1',1,1,1,12.16,2.24,0.0,0.0,0.0,0.0,1,1,0
112,'1',1,1,1,39.52,9.64,0.0,0.0,0.0,0.0,1,1,0
113,'1',1,1,1,5.95,1.62,0.0,0.0,0.0,0.0,1,1,0
114,'1',1,1,1,20.64,6.05,0.0,0.0,0.0,0.0,1,1,0
115,'1',1,1,1,9.18,2.33,0.0,0.0,0.0,0.0,1,1,0
116,'1',1,1,1,11.04,3.42,0.0,0.0,0.0,0.0,1,1,0
117,'1',1,1,1,9.35,1.98,0.0,0.0,0.0,0.0,1,1,0
118,'1',1,1,1,10.97,3.15,0.0,0.0,0.0,0.0,1,1,0
119,'1',1,1,1,5.19,1.72,0.0,0.0,0.0,0.0,1,1,0
120,'1',1,1,1,16.48,12.0,0.0,0.0,0.0,0.0,1,1,0
121,'1',1,1,1,1.33,0.46,0.0,0.0,0.0,0.0,1,1,0
122,'1',1,1,1,2.06,0.91,0.0,0.0,0.0,0.0,1,1,0
123,'1',1,1,1,3.37,1.05,0.0,0.0,0.0,0.0,1,1,0
124,'1',1,1,1,39.63,10.56,0.0,0.0,0.0,0.0,1,1,0
125,'1',1,1,1,7.74,0.98,0.0,0.0,0.0,0.0,1,1,0
126,'1',1,1,1,14.46,2.57,0.0,0.0,0.0,0.0,1,1,0
127,'1',1,1,1,116.36,23.74,0.0,0.0,0.0,0.0,1,1,0
128,'1',1,1,1,11.6,2.88,0.0,0.0,0.0,0.0,1,1,0
129,'1',1,1,1,28.29,3.79,0.0,0.0,0.0,0.0,1,1,0
130,'1',1,1,1,28.32,7.38,0.0,0.0,0.0,0.0,1,1,0
131,'1',1,1,1,1.57,0.59,0.0,0.0,0.0,0.0,1,1,0
132,'1',1,1,1,24.37,4.11,0.0,0.0,0.0,0.0,1,1,0
133,'1',1,1,1,32.36,9.9,0.0,0.0,0.0,0.0,1,1,0
134,'1',1,1,1,18.22,3.91,0.0,0.0,0.0,0.0,1,1,0
135,'1',1,1,1,5.49,1.66,0.0,0.0,0.0,0.0,1,1,0
136,'1',1,1,1,15.34,3.76,0.0,0.0,0.0,0.0,1,1,0
137,'1',1,1,1,22.82,12.0,0.0,0.0,0.0,0.0,1,1,0
138,'1',1,1,1,11.48,2.8,0.0,0.0,0.0,0.0,1,1,0
139,'1',1,1,1,6.57,2.25,0.0,0.0,0.0,0.0,1,1,0
140,'1',1,1,1,3.72,1.44,0.0,0.0,0.0,0.0,1,1,0
141,'1',1,1,1,11.03,2.81,0.0,0.0,0.0,0.0,1,1,0
142,'1',1,1,1,5.72,1.59,0.0,0.0,0.0,0.0,1,1,0
143,'1',1,1,1,39.27,8.42,0.0,0.0,0.0,0.0,1,1,0
144,'1',1,1,1,31.97,7.08,0.0,0.0,0.0,0.0,1,1,0
145,'1',1,1,1,16.65,3.86,0.0,0.0,0.0,0.0,1,1,0
146,'1',1,1,1,6.49,1.89,0.0,0.0,0.0,0.0,1,1,0
147,'1',1,1,1,7.48,6.0,0.0,0.0,0.0,0.0,1,1,0
148,'1',1,1,1,2.14,0.78,0.0,0.0,0.0,0.0,1,1,0
149,'1',1,1,1,6.39,2.21,0.0,0.0,0.0,0.0,1,1,0
150,'1',1,1,1,5.12,1.57,0.0,0.0,0.0,0.0,1,1,0
151,'1',1,1,1,22.06,4.23,0.0,0.0,0.0,0.0,1,1,0
152,'1',1,1,1,8.09,2.6,0.0,0.0,0.0,0.0,1,1,0
153,'1',1,1,1,21.2,5.77,0.0,0.0,0.0,0.0,1,1,0
154,'1',1,1,1,6.04,1.72,0.0,0.0,0.0,0.0,1,1,0
155,'1',1,1,1,14.64,3.53,0.0,0.0,0.0,0.0,1,1,0
156,'1',1,1,1,5.35,1.8,0.0,0.0,0.0,0.0,1,1,0
157,'1',1,1,1,66.85,13.73,0.0,0.0,0.0,0.0,1,1,0
158,'1',1,1,1,4.56,1.43,0.0,0.0,0.0,0.0,1,1,0
159,'1',1,1,1,19.76,5.7,0.0,0.0,0.0,0.0,1,1,0
160,'1',1,1,1,8.58,2.19,0.0,0.0,0.0,0.0,1,1,0
161,'1',1,1,1,3.1,1.01,0.0,0.0,0.0,0.0,1,1,0
162,'1',1,1,1,3.69,1.32,0.0,0.0,0.0,0.0,1,1,0
163,'1',1,1,1,6.87,1.91,0.0,0.0,0.0,0.0,1,1,0
164,'1',1,1,1,14.11,4.42,0.0,0.0,0.0,0.0,1,1,0
165,'1',1,1,1,28.67,3.34,0.0,0.0,0.0,0.0,1,1,0
166,'1',1,1,1,23.16,4.69,0.0,0.0,0.0,0.0,1,1,0
167,'1',1,1,1,11.57,2.31,0.0,0.0,0.0,0.0,1,1,0
168,'1',1,1,1,11.82,3.82,0.0,0.0,0.0,0.0,1,1,0
169,'1',1,1,1,6.8,1.63,0.0,0.0,0.0,0.0,1,1,0
170,'1',1,1,1,4.13,1.49,0.0,0.0,0.0,0.0,1,1,0
171,'1',1,1,1,3.35,1.07,0.0,0.0,0.0,0.0,1,1,0
172,'1',1,1,1,39.16,8.81,0.0,0.0,0.0,0.0,1,1,0
173,'1',1,1,1,4.24,1.41,0.0,0.0,0.0,0.0,1,1,0
174,'1',1,1,1,2.62,1.07,0.0,0.0,0.0,0.0,1,1,0
175,'1',1,1,1,19.05,5.57,0.0,0.0,0.0,0.0,1,1,0
176,'1',1,1,1,6.65,1.91,0.0,0.0,0.0,0.0,1,1,0
177,'1',1,1,1,4.17,1.4,0.0,0.0,0.0,0.0,1,1,0
178,'1',1,1,1,1.8,0.61,0.0,0.0,0.0,0.0,1,1,0
179,'1',1,1,1,11.97,3.46,0.0,0.0,0.0,0.0,1,1,0
180,'1',1,1,1,35.37,8.17,0.0,0.0,0.0,0.0,1,1,0
181,'1',1,1,1,13.02,4.08,0.0,0.0,0.0,0.0,1,1,0
182,'1',1,1,1,7.86,2.0,0.0,0.0,0.0,0.0,1,1,0
183,'1',1,1,1,3.66,1.1,0.0,0.0,0.0,0.0,1,1,0
184,'1',1,1,1,1.72,0.54,0.0,0.0,0.0,0.0,1,1,0
185,'1',1,1,1,14.95,2.99,0.0,0.0,0.0,0.0,1,1,0
186,'1',1,1,1,5.19,3.0,0.0,0.0,0.0,0.0,1,1,0
187,'1',1,1,1,5.52,1.74,0.0,0.0,0.0,0.0,1,1,0
188,'1',1,1,1,2.95,0.73,0.0,0.0,0.0,0.0,1,1,0
189,'1',1,1,1,13.78,2.42,0.0,0.0,0.0,0.0,1,1,0
190,'1',1,1,1,21.27,4.41,0.0,0.0,0.0,0.0,1,1,0
191,'1',1,1,1,57.93,14.68,0.0,0.0,0.0,0.0,1,1,0
192,'1',1,1,1,2.48,0.76,0.0,0.0,0.0,0.0,1,1,0
193,'1',1,1,1,5.63,1.95,0.0,0.0,0.0,0.0,1,1,0
194,'1',1,1,1,10.99,3.21,0.0,0.0,0.0,0.0,1,1,0
195,'1',1,1,1,11.14,2.86,0.0,0.0,0.0,0.0,1,1,0
196,'1',1,1,1,4.74,1.59,0.0,0.0,0.0,0.0,1,1,0
197,'1',1,1,1,6.69,2.01,0.0,0.0,0.0,0.0,1,1,0
198,'1',1,1,1,3.56,1.29,0.0,0.0,0.0,0.0,1,1,0
199,'1',1,1,1,11.82,2.73,0.0,0.0,0.0,0.0,1,1,0
200,'1',1,1,1,10.31,3.17,0.0,0.0,0.0,0.0,1,1,0
...
0 / END OF LOAD DATA BEGIN FIXED SHUNT DATA
109,'1',1,0.0,24.0
121,'2',1,0.0,24.0
162,'2',1,0.0,13.021
166,'1',1,0.0,11.261
169,'2',1,0.0,18.76
172,'1',1,0.0,12.199
174,'2',1,0.0,6.482
236,'1',1,0.0,-24.0
4219,'2',1,0.0,-24.0
7651,'1',1,0.0,-24.0
0 / END OF FIXED SHUNT DATA BEGIN GENERATOR DATA
1,'1',0.0,0.0,220.0,-215.5,1.0,0,100.0,0.0,1.0,0.0,0.0,1.0,1,100.0,444.72,195.0,1,1.0,0,1.0,0,1.0,0,1.0,0,1.0
1,'2',0.0,0.0,220.0,-215.5,1.0,0,100.0,0.0,1.0,0.0,0.0,1.0,1,100.0,444.72,195.0,1,1.0,0,1.0,0,1.0,0,1.0,0,1.0
1,'3',0.0,0.0,220.0,-215.5,1.0,0,100.0,0.0,1.0,0.0,0.0,1.0,1,100.0,444.72,195.0,1,1.0,0,1.0,0,1.0,0,1.0,0,1.0
1,'4',0.0,0.0,220.0,-215.5,1.0,0,100.0,0.0,1.0,0.0,0.0,1.0,1,100.0,444.72,195.0,1,1.0,0,1.0,0,1.0,0,1.0,0,1.0
2,'1',0.0,0.0,181.33,-174.33,1.04,0,100.0,0.0,1.0,0.0,0.0,1.0,1,100.0,360.1,135.0,1,1.0,0,1.0,0,1.0,0,1.0,0,1.0
2,'2',0.0,0.0,181.33,-174.33,1.04,0,100.0,0.0,1.0,0.0,0.0,1.0,1,100.0,360.1,135.0,1,1.0,0,1.0,0,1.0,0,1.0,0,1.0
2,'3',0.0,0.0,181.33,-174.33,1.04,0,100.0,0.0,1.0,0.0,0.0,1.0,1,100.0,360.1,135.0,1,1.0,0,1.0,0,1.0,0,1.0,0,1.0
3,'1',0.0,0.0,393.0,-393.0,1.0,0,100.0,0.0,1.0,0.0,0.0,1.0,1,100.0,811.9,275.0,1,1.0,0,1.0,0,1.0,0,1.0,0,1.0
4,'1',0.0,0.0,352.0,-352.0,1.0,0,100.0,0.0,1.0,0.0,0.0,1.0,1,100.0,725.9,220.0,1,1.0,0,1.0,0,1.0,0,1.0,0,1.0
5,'1',0.0,0.0,337.0,-337.0,1.0,0,100.0,0.0,1.0,0.0,0.0,1.0,1,100.0,695.9,250.0,1,1.0,0,1.0,0,1.0,0,1.0,0,1.0
6,'1',0.0,0.0,223.0,-223.0,1.0,0,100.0,0.0,1.0,0.0,0.0,1.0,1,100.0,679.5,60.0,1,1.0,0,1.0,0,1.0,0,1.0,0,1.0
7,'1',0.0,0.0,374.0,-292.0,1.0,0,100.0,0.0,1.0,0.0,0.0,1.0,1,100.0,602.8,253.0,1,1.0,0,1.0,0,1.0,0,1.0,0,1.0
8,'1',0.0,0.0,357.0,-279.0,1.0,0,100.0,0.0,1.0,0.0,0.0,1.0,1,100.0,576.3,295.0,1,1.0,0,1.0,0,1.0,0,1.0,0,1.0
9,'1',0.0,0.0,54.67,-52.33,1.0,0,100.0,0.0,1.0,0.0,0.0,1.0,1,100.0,107.83,38.0,1,1.0,0,1.0,0,1.0,0,1.0,0,1.0
9,'2',0.0,0.0,54.67,-52.33,1.0,0,100.0,0.0,1.0,0.0,0.0,1.0,1,100.0,107.83,38.0,1,1.0,0,1.0,0,1.0,0,1.0,0,1.0
9,'3',0.0,0.0,54.67,-52.33,1.0,0,100.0,0.0,1.0,0.0,0.0,1.0,1,100.0,107.83,38.0,1,1.0,0,1.0,0,1.0,0,1.0,0,1.0
10,'1',0.0,0.0,145.0,-145.0,1.0,0,100.0,0.0,1.0,0.0,0.0,1.0,1,100.0,9.0,0.0,1,1.0,0,1.0,0,1.0,0,1.0,1,1.0
11,'1',0.0,0.0,45.5,-35.5,1.0,0,100.0,0.0,1.0,0.0,0.0,1.0,1,100.0,73.37,20.25,1,1.0,0,1.0,0,1.0,0,1.0,0,1.0
11,'2',0.0,0.0,45.5,-35.5,1.0,0,100.0,0.0,1.0,0.0,0.0,1.0,1,100.0,73.37,20.25,1,1.0,0,1.0,0,1.0,0,1.0,0,1.0
11,'3',0.0,0.0,45.5,-35.5,1.0,0,100.0,0.0,1.0,0.0,0.0,1.0,1,100.0,73.37,20.25,1,1.0,0,1.0,0,1.0,0,1.0,0,1.0
11,'4',0.0,0.0,45.5,-35.5,1.0,0,100.0,0.0,1.0,0.0,0.0,1.0,1,100.0,73.37,20.25,1,1.0,0,1.0,0,1.0,0,1.0,0,1.0
12,'1',0.0,0.0,42.67,-42.67,1.0,0,100.0,0.0,1.0,0.0,0.0,1.0,1,100.0,88.03,6.0,1,1.0,0,1.0,0,1.0,0,1.0,0,1.0
12,'2',0.0,0.0,42.67,-42.67,1.0,0,100.0,0.0,1.0,0.0,0.0,1.0,1,100.0,88.03,6.0,1,1.0,0,1.0,0,1.0,0,1.0,0,1.0
12,'3',0.0,0.0,42.67,-42.67,1.0,0,100.0,0.0,1.0,0.0,0.0,1.0,1,100.0,88.03,6.0,1,1.0,0,1.0,0,1.0,0,1.0,0,1.0
13,'1',0.0,0.0,41.33,-41.33,1.0,0,100.0,0.0,1.0,0.0,0.0,1.0,1,100.0,2.67,0.0,1,1.0,0,1.0,0,1.0,0,1.0,1,1.0
13,'2',0.0,0.0,41.33,-41.33,1.0,0,100.0,0.0,1.0,0.0,0.0,1.0,1,100.0,2.67,0.0,1,1.0,0,1.0,0,1.0,0,1.0,1,1.0
13,'3',0.0,0.0,41.33,-41.33,1.0,0,100.0,0.0,1.0,0.0,0.0,1.0,1,100.0,2.67,0.0,1,1.0,0,1.0,0,1.0,0,1.0,1,1.0
14,'1',0.0,0.0,179.0,-124.0,1.0,0,100.0,0.0,1.0,0.0,0.0,1.0,1,100.0,256.1,20.0,1,1.0,0,1.0,0,1.0,0,1.0,0,1.0
15,'1',0.0,0.0,33.5,-28.5,1.0,0,100.0,0.0,1.0,0.0,0.0,1.0,1,100.0,59.1,17.75,1,1.0,0,1.0,0,1.0,0,1.0,0,1.0
15,'2',0.0,0.0,33.5,-28.5,1.0,0,100.0,0.0,1.0,0.0,0.0,1.0,1,100.0,59.1,17.75,1,1.0,0,1.0,0,1.0,0,1.0,0,1.0
16,'1',0.0,0.0,38.0,-38.0,1.0,0,100.0,0.0,1.0,0.0,0.0,1.0,1,100.0,2.67,0.0,1,1.0,0,1.0,0,1.0,0,1.0,1,1.0
16,'2',0.0,0.0,38.0,-38.0,1.0,0,100.0,0.0,1.0,0.0,0.0,1.0,1,100.0,2.67,0.0,1,1.0,0,1.0,0,1.0,0,1.0,1,1.0
16,'3',0.0,0.0,38.0,-38.0,1.0,0,100.0,0.0,1.0,0.0,0.0,1.0,1,100.0,2.67,0.0,1,1.0,0,1.0,0,1.0,0,1.0,1,1.0
17,'1',0.0,0.0,135.0,-106.0,1.0,0,100.0,0.0,1.0,0.0,0.0,1.0,1,100.0,218.5,45.0,1,1.0,0,1.0,0,1.0,0,1.0,0,1.0
18,'1',0.0,0.0,103.0,-103.0,1.0,0,100.0,0.0,1.0,0.0,0.0,1.0,1,100.0,212.0,80.0,1,1.0,0,1.0,0,1.0,0,1.0,0,1.0
19,'1',0.0,0.0,97.0,-97.0,1.0,0,100.0,0.0,1.0,0.0,0.0,1.0,1,100.0,200.0,0.0,1,1.0,0,1.0,0,1.0,0,1.0,1,1.0
20,'1',0.0,0.0,97.0,-97.0,1.0,0,100.0,0.0,1.0,0.0,0.0,1.0,1,100.0,6.0,0.0,1,1.0,0,1.0,0,1.0,0,1.0,1,1.0
21,'1',0.0,0.0,30.67,-30.67,1.0,0,100.0,0.0,1.0,0.0,0.0,1.0,1,100.0,63.0,30.0,1,1.0,0,1.0,0,1.0,0,1.0,0,1.0
21,'2',0.0,0.0,30.67,-30.67,1.0,0,100.0,0.0,1.0,0.0,0.0,1.0,1,100.0,63.0,30.0,1,1.0,0,1.0,0,1.0,0,1.0,0,1.0
21,'3',0.0,0.0,30.67,-30.67,1.0,0,100.0,0.0,1.0,0.0,0.0,1.0,1,100.0,63.0,30.0,1,1.0,0,1.0,0,1.0,0,1.0,0,1.0
22,'1',0.0,0.0,44.5,-44.5,1.0,0,100.0,0.0,1.0,0.0,0.0,1.0,1,100.0,3.0,0.0,1,1.0,0,1.0,0,1.0,0,1.0,1,1.0
22,'2',0.0,0.0,44.5,-44.5,1.0,0,100.0,0.0,1.0,0.0,0.0,1.0,1,100.0,3.0,0.0,1,1.0,0,1.0,0,1.0,0,1.0,1,1.0
23,'1',0.0,0.0,37.33,-29.33,1.0,0,100.0,0.0,1.0,0.0,0.0,1.0,1,100.0,60.5,30.0,1,1.0,0,1.0,0,1.0,0,1.0,0,1.0
23,'2',0.0,0.0,37.33,-29.33,1.0,0,100.0,0.0,1.0,0.0,0.0,1.0,1,100.0,60.5,30.0,1,1.0,0,1.0,0,1.0,0,1.0,0,1.0
23,'3',0.0,0.0,37.33,-29.33,1.0,0,100.0,0.0,1.0,0.0,0.0,1.0,1,100.0,60.5,30.0,1,1.0,0,1.0,0,1.0,0,1.0,0,1.0
24,'1',0.0,0.0,56.0,-43.5,1.0,0,100.0,0.0,1.0,0.0,0.0,1.0,1,100.0,90.0,10.0,1,1.0,0,1.0,0,1.0,0,1.0,0,1.0
24,'2',0.0,0.0,56.0,-43.5,1.0,0,100.0,0.0,1.0,0.0,0.0,1.0,1,100.0,90.0,10.0,1,1.0,0,1.0,0,1.0,0,1.0,0,1.0
25,'1',0.0,0.0,29.0,-29.0,1.0,0,100.0,0.0,1.0,0.0,0.0,1.0,1,100.0,59.93,6.0,1,1.0,0,1.0,0,1.0,0,1.0,0,1.0
25,'2',0.0,0.0,29.0,-29.0,1.0,0,100.0,0.0,1.0,0.0,0.0,1.0,1,100.0,59.93,6.0,1,1.0,0,1.0,0,1.0,0,1.0,0,1.0
25,'3',0.0,0.0,29.0,-29.0,1.0,0,100.0,0.0,1.0,0.0,0.0,1.0,1,100.0,59.93,6.0,1,1.0,0,1.0,0,1.0,0,1.0,0,1.0
26,'1',0.0,0.0,85.0,-85.0,1.0,0,100.0,0.0,1.0,0.0,0.0,1.0,1,100.0,48.7,0.0,1,1.0,0,1.0,0,1.0,0,1.0,1,1.0
27,'1',0.0,0.0,38.5,-38.5,1.0,0,100.0,0.0,1.0,0.0,0.0,1.0,1,100.0,2.5,0.0,1,1.0,0,1.0,0,1.0,0,1.0,1,1.0
27,'2',0.0,0.0,38.5,-38.5,1.0,0,100.0,0.0,1.0,0.0,0.0,1.0,1,100.0,2.5,0.0,1,1.0,0,1.0,0,1.0,0,1.0,1,1.0
28,'1',0.0,0.0,38.0,-38.0,1.0,0,100.0,0.0,1.0,0.0,0.0,1.0,1,100.0,78.8,6.0,1,1.0,0,1.0,0,1.0,0,1.0,0,1.0
28,'2',0.0,0.0,38.0,-38.0,1.0,0,100.0,0.0,1.0,0.0,0.0,1.0,1,100.0,78.8,6.0,1,1.0,0,1.0,0,1.0,0,1.0,0,1.0
29,'1',0.0,0.0,74.0,-74.0,1.0,0,100.0,0.0,1.0,0.0,0.0,1.0,1,100.0,5.0,0.0,1,1.0,0,1.0,0,1.0,0,1.0,1,1.0
30,'1',0.0,0.0,73.0,-73.0,1.0,0,100.0,0.0,1.0,0.0,0.0,1.0,1,100.0,53.47,0.0,1,1.0,0,1.0,0,1.0,0,1.0,1,1.0
31,'1',0.0,0.0,73.0,-73.0,1.0,0,100.0,0.0,1.0,0.0,0.0,1.0,1,100.0,150.0,0.0,1,1.0,0,1.0,0,1.0,0,1.0,1,1.0
32,'1',0.0,0.0,73.0,-73.0,1.0,0,100.0,0.0,1.0,0.0,0.0,1.0,1,100.0,8.0,0.0,1,1.0,0,1.0,0,1.0,0,1.0,1,1.0
33,'1',0.0,0.0,73.0,-73.0,1.0,0,100.0,0.0,1.0,0.0,0.0,1.0,1,100.0,8.0,0.0,1,1.0,0,1.0,0,1.0,0,1.0,1,1.0
34,'1',0.0,0.0,84.0,-66.0,1.0,0,100.0,0.0,1.0,0.0,0.0,1.0,1,100.0,136.0,30.0,1,1.0,0,1.0,0,1.0,0,1.0,0,1.0
35,'1',0.0,0.0,9.88,-7.75,1.0,0,100.0,0.0,1.0,0.0,0.0,1.0,1,100.0,16.0,2.5,1,1.0,0,1.0,0,1.0,0,1.0,0,1.0
35,'2',0.0,0.0,9.88,-7.75,1.0,0,100.0,0.0,1.0,0.0,0.0,1.0,1,100.0,16.0,2.5,1,1.0,0,1.0,0,1.0,0,1.0,0,1.0
35,'3',0.0,0.0,9.88,-7.75,1.0,0,100.0,0.0,1.0,0.0,0.0,1.0,1,100.0,16.0,2.5,1,1.0,0,1.0,0,1.0,0,1.0,0,1.0
35,'4',0.0,0.0,9.88,-7.75,1.0,0,100.0,0.0,1.0,0.0,0.0,1.0,1,100.0,16.0,2.5,1,1.0,0,1.0,0,1.0,0,1.0,0,1.0
35,'5',0.0,0.0,9.88,-7.75,1.0,0,100.0,0.0,1.0,0.0,0.0,1.0,1,100.0,16.0,2.5,1,1.0,0,1.0,0,1.0,0,1.0,0,1.0
35,'6',0.0,0.0,9.88,-7.75,1.0,0,100.0,0.0,1.0,0.0,0.0,1.0,1,100.0,16.0,2.5,1,1.0,0,1.0,0,1.0,0,1.0,0,1.0
35,'7',0.0,0.0,9.88,-7.75,1.0,0,100.0,0.0,1.0,0.0,0.0,1.0,1,100.0,16.0,2.5,1,1.0,0,1.0,0,1.0,0,1.0,0,1.0
35,'8',0.0,0.0,9.88,-7.75,1.0,0,100.0,0.0,1.0,0.0,0.0,1.0,1,100.0,16.0,2.5,1,1.0,0,1.0,0,1.0,0,1.0,0,1.0
36,'1',0.0,0.0,94.0,-60.0,1.0,0,100.0,0.0,1.0,0.0,0.0,1.0,1,100.0,57.0,55.0,1,1.0,0,1.0,0,1.0,0,1.0,0,1.0
37,'1',0.0,0.0,40.0,-40.0,1.0,0,100.0,0.0,1.0,0.0,0.0,1.0,1,100.0,119.0,36.0,1,1.0,0,1.0,0,1.0,0,1.0,0,1.0
38,'1',0.0,0.0,18.33,-18.33,1.0,0,100.0,0.0,1.0,0.0,0.0,1.0,1,100.0,29.26,0.0,1,1.0,0,1.0,0,1.0,0,1.0,1,1.0
38,'2',0.0,0.0,18.33,-18.33,1.0,0,100.0,0.0,1.0,0.0,0.0,1.0,1,100.0,29.26,0.0,1,1.0,0,1.0,0,1.0,0,1.0,1,1.0
38,'3',0.0,0.0,18.33,-18.33,1.0,0,100.0,0.0,1.0,0.0,0.0,1.0,1,100.0,29.26,0.0,1,1.0,0,1.0,0,1.0,0,1.0,1,1.0
39,'1',0.0,0.0,29.0,-26.5,1.0,0,100.0,0.0,1.0,0.0,0.0,1.0,1,100.0,54.0,22.5,1,1.0,0,1.0,0,1.0,0,1.0,0,1.0
39,'2',0.0,0.0,29.0,-26.5,1.0,0,100.0,0.0,1.0,0.0,0.0,1.0,1,100.0,54.0,22.5,1,1.0,0,1.0,0,1.0,0,1.0,0,1.0
40,'1',0.0,0.0,48.0,-48.0,1.0,0,100.0,0.0,1.0,0.0,0.0,1.0,1,100.0,14.23,0.0,1,1.0,0,1.0,0,1.0,0,1.0,1,1.0
41,'1',0.0,0.0,48.0,-48.0,1.0,0,100.0,0.0,1.0,0.0,0.0,1.0,1,100.0,61.19,0.0,1,1.0,0,1.0,0,1.0,0,1.0,1,1.0
42,'1',0.0,0.0,48.0,-48.0,1.0,0,100.0,0.0,1.0,0.0,0.0,1.0,1,100.0,5.99,0.0,1,1.0,0,1.0,0,1.0,0,1.0,1,1.0
43,'1',0.0,0.0,48.0,-48.0,1.0,0,100.0,0.0,1.0,0.0,0.0,1.0,1,100.0,6.08,0.0,1,1.0,0,1.0,0,1.0,0,1.0,1,1.0
44,'1',0.0,0.0,47.0,-47.0,1.0,0,100.0,0.0,1.0,0.0,0.0,1.0,1,100.0,5.0,0.0,1,1.0,0,1.0,0,1.0,0,1.0,1,1.0
45,'1',0.0,0.0,28.0,-22.0,1.0,0,100.0,0.0,1.0,0.0,0.0,1.0,1,100.0,45.1,13.0,1,1.0,0,1.0,0,1.0,0,1.0,0,1.0
45,'2',0.0,0.0,28.0,-22.0,1.0,0,100.0,0.0,1.0,0.0,0.0,1.0,1,100.0,45.1,13.0,1,1.0,0,1.0,0,1.0,0,1.0,0,1.0
46,'1',0.0,0.0,17.0,-13.67,1.0,0,100.0,0.0,1.0,0.0,0.0,1.0,1,100.0,28.27,9.33,1,1.0,0,1.0,0,1.0,0,1.0,0,1.0
46,'2',0.0,0.0,17.0,-13.67,1.0,0,100.0,0.0,1.0,0.0,0.0,1.0,1,100.0,28.27,9.33,1,1.0,0,1.0,0,1.0,0,1.0,0,1.0
46,'3',0.0,0.0,17.0,-13.67,1.0,0,100.0,0.0,1.0,0.0,0.0,1.0,1,100.0,28.27,9.33,1,1.0,0,1.0,0,1.0,0,1.0,0,1.0
47,'1',0.0,0.0,48.0,-41.0,1.0,0,100.0,0.0,1.0,0.0,0.0,1.0,1,100.0,84.7,29.0,1,1.0,0,1.0,0,1.0,0,1.0,0,1.0
48,'1',0.0,0.0,51.0,-40.0,1.01266,0,100.0,0.0,1.0,0.0,0.0,1.0,1,100.0,81.6,45.0,1,1.0,0,1.0,0,1.0,0,1.0,0,1.0
49,'1',0.0,0.0,39.0,-39.0,1.0,0,100.0,0.0,1.0,0.0,0.0,1.0,1,100.0,3.0,0.0,1,1.0,0,1.0,0,1.0,0,1.0,1,1.0
50,'1',0.0,0.0,39.0,-39.0,1.0,0,100.0,0.0,1.0,0.0,0.0,1.0,1,100.0,3.0,0.0,1,1.0,0,1.0,0,1.0,0,1.0,1,1.0
51,'1',0.0,0.0,39.0,-39.0,1.0,0,100.0,0.0,1.0,0.0,0.0,1.0,1,100.0,3.0,0.0,1,1.0,0,1.0,0,1.0,0,1.0,1,1.0
52,'1',0.0,0.0,9.5,-9.5,1.0,0,100.0,0.0,1.0,0.0,0.0,1.0,1,100.0,19.7,5.0,1,1.0,0,1.0,0,1.0,0,1.0,0,1.0
52,'2',0.0,0.0,9.5,-9.5,1.0,0,100.0,0.0,1.0,0.0,0.0,1.0,1,100.0,19.7,5.0,1,1.0,0,1.0,0,1.0,0,1.0,0,1.0
52,'3',0.0,0.0,9.5,-9.5,1.0,0,100.0,0.0,1.0,0.0,0.0,1.0,1,100.0,19.7,5.0,1,1.0,0,1.0,0,1.0,0,1.0,0,1.0
52,'4',0.0,0.0,9.5,-9.5,1.0,0,100.0,0.0,1.0,0.0,0.0,1.0,1,100.0,19.7,5.0,1,1.0,0,1.0,0,1.0,0,1.0,0,1.0
53,'1',0.0,0.0,11.75,-9.5,1.0,0,100.0,0.0,1.0,0.0,0.0,1.0,1,100.0,19.7,8.0,1,1.0,0,1.0,0,1.0,0,1.0,0,1.0
53,'2',0.0,0.0,11.75,-9.5,1.0,0,100.0,0.0,1.0,0.0,0.0,1.0,1,100.0,19.7,8.0,1,1.0,0,1.0,0,1.0,0,1.0,0,1.0
53,'3',0.0,0.0,11.75,-9.5,1.0,0,100.0,0.0,1.0,0.0,0.0,1.0,1,100.0,19.7,8.0,1,1.0,0,1.0,0,1.0,0,1.0,0,1.0
53,'4',0.0,0.0,11.75,-9.5,1.0,0,100.0,0.0,1.0,0.0,0.0,1.0,1,100.0,19.7,8.0,1,1.0,0,1.0,0,1.0,0,1.0,0,1.0
54,'1',0.0,0.0,24.5,-19.0,1.0,0,100.0,0.0,1.0,0.0,0.0,1.0,1,100.0,39.35,8.0,1,1.0,0,1.0,0,1.0,0,1.0,0,1.0
54,'2',0.0,0.0,24.5,-19.0,1.0,0,100.0,0.0,1.0,0.0,0.0,1.0,1,100.0,39.35,8.0,1,1.0,0,1.0,0,1.0,0,1.0,0,1.0
55,'1',0.0,0.0,36.0,-36.0,1.0,0,100.0,0.0,1.0,0.0,0.0,1.0,1,100.0,3.0,0.0,1,1.0,0,1.0,0,1.0,0,1.0,1,1.0
56,'1',0.0,0.0,11.25,-8.75,1.0,0,100.0,0.0,1.0,0.0,0.0,1.0,1,100.0,18.0,2.5,1,1.0,0,1.0,0,1.0,0,1.0,0,1.0
56,'2',0.0,0.0,11.25,-8.75,1.0,0,100.0,0.0,1.0,0.0,0.0,1.0,1,100.0,18.0,2.5,1,1.0,0,1.0,0,1.0,0,1.0,0,1.0
56,'3',0.0,0.0,11.25,-8.75,1.0,0,100.0,0.0,1.0,0.0,0.0,1.0,1,100.0,18.0,2.5,1,1.0,0,1.0,0,1.0,0,1.0,0,1.0
56,'4',0.0,0.0,11.25,-8.75,1.0,0,100.0,0.0,1.0,0.0,0.0,1.0,1,100.0,18.0,2.5,1,1.0,0,1.0,0,1.0,0,1.0,0,1.0
57,'1',0.0,0.0,45.0,-32.0,1.0,0,100.0,0.0,1.0,0.0,0.0,1.0,1,100.0,66.2,16.0,1,1.0,0,1.0,0,1.0,0,1.0,0,1.0
58,'1',0.0,0.0,32.0,-32.0,1.0,0,100.0,0.0,1.0,0.0,0.0,1.0,1,100.0,66.0,0.0,1,1.0,0,1.0,0,1.0,0,1.0,1,1.0
59,'1',0.0,0.0,39.0,-30.0,1.0,0,100.0,0.0,1.0,0.0,0.0,1.0,1,100.0,62.5,25.0,1,1.0,0,1.0,0,1.0,0,1.0,0,1.0
60,'1',0.0,0.0,38.0,-29.0,1.0,0,100.0,0.0,1.0,0.0,0.0,1.0,1,100.0,60.0,25.0,1,1.0,0,1.0,0,1.0,0,1.0,0,1.0
61,'1',0.0,0.0,32.0,-26.0,1.0,0,100.0,0.0,1.0,0.0,0.0,1.0,1,100.0,53.7,11.0,1,1.0,0,1.0,0,1.0,0,1.0,0,1.0
62,'1',0.0,0.0,31.0,-24.0,1.0,0,100.0,0.0,1.0,0.0,0.0,1.0,1,100.0,50.0,18.0,1,1.0,0,1.0,0,1.0,0,1.0,0,1.0
63,'1',0.0,0.0,24.0,-24.0,1.0,0,100.0,0.0,1.0,0.0,0.0,1.0,1,100.0,50.0,0.0,1,1.0,0,1.0,0,1.0,0,1.0,1,1.0
64,'1',0.0,0.0,14.5,-11.5,1.0,0,100.0,0.0,1.0,0.0,0.0,1.0,1,100.0,23.8,10.0,1,1.0,0,1.0,0,1.0,0,1.0,0,1.0
64,'2',0.0,0.0,14.5,-11.5,1.0,0,100.0,0.0,1.0,0.0,0.0,1.0,1,100.0,23.8,10.0,1,1.0,0,1.0,0,1.0,0,1.0,0,1.0
65,'1',0.0,0.0,29.0,-22.0,1.0,0,100.0,0.0,1.0,0.0,0.0,1.0,1,100.0,46.0,9.0,1,1.0,0,1.0,0,1.0,0,1.0,0,1.0
66,'1',0.0,0.0,21.0,-21.0,1.0,0,100.0,0.0,1.0,0.0,0.0,1.0,1,100.0,43.5,0.0,1,1.0,0,1.0,0,1.0,0,1.0,1,1.0
67,'1',0.0,0.0,13.5,-10.5,1.0,0,100.0,0.0,1.0,0.0,0.0,1.0,1,100.0,21.7,7.5,1,1.0,0,1.0,0,1.0,0,1.0,0,1.0
67,'2',0.0,0.0,13.5,-10.5,1.0,0,100.0,0.0,1.0,0.0,0.0,1.0,1,100.0,21.7,7.5,1,1.0,0,1.0,0,1.0,0,1.0,0,1.0
68,'1',0.0,0.0,20.0,-20.0,1.0,0,100.0,0.0,1.0,0.0,0.0,1.0,1,100.0,2.0,0.0,1,1.0,0,1.0,0,1.0,0,1.0,1,1.0
69,'1',0.0,0.0,25.0,-19.0,1.0,0,100.0,0.0,1.0,0.0,0.0,1.0,1,100.0,40.0,10.0,1,1.0,0,1.0,0,1.0,0,1.0,0,1.0
70,'1',0.0,0.0,8.5,-8.5,1.0,0,100.0,0.0,1.0,0.0,0.0,1.0,1,100.0,18.0,6.0,1,1.0,0,1.0,0,1.0,0,1.0,0,1.0
70,'2',0.0,0.0,8.5,-8.5,1.0,0,100.0,0.0,1.0,0.0,0.0,1.0,1,100.0,18.0,6.0,1,1.0,0,1.0,0,1.0,0,1.0,0,1.0
71,'1',0.0,0.0,21.0,-17.0,1.0,0,100.0,0.0,1.0,0.0,0.0,1.0,1,100.0,34.4,5.0,1,1.0,0,1.0,0,1.0,0,1.0,0,1.0
72,'1',0.0,0.0,14.0,-14.0,1.0,0,100.0,0.0,1.0,0.0,0.0,1.0,1,100.0,29.7,0.0,1,1.0,0,1.0,0,1.0,0,1.0,1,1.0
73,'1',0.0,0.0,6.0,-6.0,1.0,0,100.0,0.0,1.0,0.0,0.0,1.0,1,100.0,28.0,14.0,1,1.0,0,1.0,0,1.0,0,1.0,0,1.0
74,'1',0.0,0.0,18.0,-12.0,1.0,0,100.0,0.0,1.0,0.0,0.0,1.0,1,100.0,24.0,1.0,1,1.0,0,1.0,0,1.0,0,1.0,0,1.0
75,'1',0.0,0.0,18.0,-12.0,1.00599,0,100.0,0.0,1.0,0.0,0.0,1.0,1,100.0,23.8,10.0,1,1.0,0,1.0,0,1.0,0,1.0,0,1.0
76,'1',0.0,0.0,14.0,-11.0,1.0,0,100.0,0.0,1.0,0.0,0.0,1.0,1,100.0,22.5,14.0,1,1.0,0,1.0,0,1.0,0,1.0,0,1.0
77,'1',0.0,0.0,4.0,-4.0,1.0,0,100.0,0.0,1.0,0.0,0.0,1.0,1,100.0,22.0,11.0,1,1.0,0,1.0,0,1.0,0,1.0,0,1.0
78,'1',0.0,0.0,13.0,-10.0,1.0,0,100.0,0.0,1.0,0.0,0.0,1.0,1,100.0,21.3,5.0,1,1.0,0,1.0,0,1.0,0,1.0,0,1.0
79,'1',0.0,0.0,10.0,-10.0,1.0,0,100.0,0.0,1.0,0.0,0.0,1.0,1,100.0,21.0,0.0,1,1.0,0,1.0,0,1.0,0,1.0,1,1.0
80,'1',0.0,0.0,15.0,-10.0,1.0,0,100.0,0.0,1.0,0.0,0.0,1.0,1,100.0,20.0,18.0,1,1.0,0,1.0,0,1.0,0,1.0,0,1.0
81,'1',0.0,0.0,10.0,-10.0,1.0,0,100.0,0.0,1.0,0.0,0.0,1.0,1,100.0,20.0,0.0,1,1.0,0,1.0,0,1.0,0,1.0,1,1.0
82,'1',0.0,0.0,237.2,-237.2,1.03233,0,100.0,0.0,1.0,0.0,0.0,1.0,1,100.0,489.96,261.4,1,1.0,0,1.0,0,1.0,0,1.0,0,1.0
82,'2',0.0,0.0,237.2,-237.2,1.03233,0,100.0,0.0,1.0,0.0,0.0,1.0,1,100.0,489.96,261.4,1,1.0,0,1.0,0,1.0,0,1.0,0,1.0
82,'3',0.0,0.0,237.2,-237.2,1.03233,0,100.0,0.0,1.0,0.0,0.0,1.0,1,100.0,489.96,261.4,1,1.0,0,1.0,0,1.0,0,1.0,0,1.0
82,'4',0.0,0.0,237.2,-237.2,1.03233,0,100.0,0.0,1.0,0.0,0.0,1.0,1,100.0,489.96,261.4,1,1.0,0,1.0,0,1.0,0,1.0,0,1.0
82,'5',0.0,0.0,237.2,-237.2,1.03233,0,100.0,0.0,1.0,0.0,0.0,1.0,1,100.0,489.96,261.4,1,1.0,0,1.0,0,1.0,0,1.0,0,1.0
83,'1',0.0,0.0,237.2,-237.2,1.0,0,100.0,0.0,1.0,0.0,0.0,1.0,1,100.0,489.96,263.2,1,1.0,0,1.0,0,1.0,0,1.0,0,1.0
83,'2',0.0,0.0,237.2,-237.2,1.0,0,100.0,0.0,1.0,0.0,0.0,1.0,1,100.0,489.96,263.2,1,1.0,0,1.0,0,1.0,0,1.0,0,1.0
83,'3',0.0,0.0,237.2,-237.2,1.0,0,100.0,0.0,1.0,0.0,0.0,1.0,1,100.0,489.96,263.2,1,1.0,0,1.0,0,1.0,0,1.0,0,1.0
83,'4',0.0,0.0,237.2,-237.2,1.0,0,100.0,0.0,1.0,0.0,0.0,1.0,1,100.0,489.96,263.2,1,1.0,0,1.0,0,1.0,0,1.0,0,1.0
83,'5',0.0,0.0,237.2,-237.2,1.0,0,100.0,0.0,1.0,0.0,0.0,1.0,1,100.0,489.96,263.2,1,1.0,0,1.0,0,1.0,0,1.0,0,1.0
84,'1',0.0,0.0,226.6,-226.6,1.0,0,100.0,0.0,1.0,0.0,0.0,1.0,1,100.0,468.0,53.8,1,1.0,0,1.0,0,1.0,0,1.0,0,1.0
84,'2',0.0,0.0,226.6,-226.6,1.0,0,100.0,0.0,1.0,0.0,0.0,1.0,1,100.0,468.0,53.8,1,1.0,0,1.0,0,1.0,0,1.0,0,1.0
84,'3',0.0,0.0,226.6,-226.6,1.0,0,100.0,0.0,1.0,0.0,0.0,1.0,1,100.0,468.0,53.8,1,1.0,0,1.0,0,1.0,0,1.0,0,1.0
84,'4',0.0,0.0,226.6,-226.6,1.0,0,100.0,0.0,1.0,0.0,0.0,1.0,1,100.0,468.0,53.8,1,1.0,0,1.0,0,1.0,0,1.0,0,1.0
84,'5',0.0,0.0,226.6,-226.6,1.0,0,100.0,0.0,1.0,0.0,0.0,1.0,1,100.0,468.0,53.8,1,1.0,0,1.0,0,1.0,0,1.0,0,1.0
85,'1',0.0,0.0,174.75,-174.75,1.0,0,100.0,0.0,1.0,0.0,0.0,1.0,1,100.0,504.65,66.0,1,1.0,0,1.0,0,1.0,0,1.0,0,1.0
85,'2',0.0,0.0,174.75,-174.75,1.0,0,100.0,0.0,1.0,0.0,0.0,1.0,1,100.0,504.65,66.0,1,1.0,0,1.0,0,1.0,0,1.0,0,1.0
86,'1',0.0,0.0,174.75,-174.75,1.0,0,100.0,0.0,1.0,0.0,0.0,1.0,1,100.0,504.65,75.0,1,1.0,0,1.0,0,1.0,0,1.0,0,1.0
86,'2',0.0,0.0,174.75,-174.75,1.0,0,100.0,0.0,1.0,0.0,0.0,1.0,1,100.0,504.65,75.0,1,1.0,0,1.0,0,1.0,0,1.0,0,1.0
87,'1',0.0,0.0,334.67,-305.67,1.04231,0,100.0,0.0,1.0,0.0,0.0,1.0,1,100.0,631.37,250.0,1,1.0,0,1.0,0,1.0,0,1.0,0,1.0
87,'2',0.0,0.0,334.67,-305.67,1.04231,0,100.0,0.0,1.0,0.0,0.0,1.0,1,100.0,631.37,250.0,1,1.0,0,1.0,0,1.0,0,1.0,0,1.0
88,'1',0.0,0.0,432.5,-432.5,1.0,0,100.0,0.0,1.0,0.0,0.0,1.0,1,100.0,892.8,325.0,1,1.0,0,1.0,0,1.0,0,1.0,0,1.0
88,'2',0.0,0.0,432.5,-432.5,1.0,0,100.0,0.0,1.0,0.0,0.0,1.0,1,100.0,892.8,325.0,1,1.0,0,1.0,0,1.0,0,1.0,0,1.0
89,'1',0.0,0.0,119.0,-93.0,1.0,0,100.0,0.0,1.0,0.0,0.0,1.0,1,100.0,192.0,100.0,1,1.0,0,1.0,0,1.0,0,1.0,0,1.0
89,'2',0.0,0.0,119.0,-93.0,1.0,0,100.0,0.0,1.0,0.0,0.0,1.0,1,100.0,192.0,100.0,1,1.0,0,1.0,0,1.0,0,1.0,0,1.0
89,'3',0.0,0.0,119.0,-93.0,1.0,0,100.0,0.0,1.0,0.0,0.0,1.0,1,100.0,192.0,100.0,1,1.0,0,1.0,0,1.0,0,1.0,0,1.0
89,'4',0.0,0.0,119.0,-93.0,1.0,0,100.0,0.0,1.0,0.0,0.0,1.0,1,100.0,192.0,100.0,1,1.0,0,1.0,0,1.0,0,1.0,0,1.0
89,'5',0.0,0.0,119.0,-93.0,1.0,0,100.0,0.0,1.0,0.0,0.0,1.0,1,100.0,192.0,100.0,1,1.0,0,1.0,0,1.0,0,1.0,0,1.0
89,'6',0.0,0.0,119.0,-93.0,1.0,0,100.0,0.0,1.0,0.0,0.0,1.0,1,100.0,192.0,100.0,1,1.0,0,1.0,0,1.0,0,1.0,0,1.0
89,'7',0.0,0.0,119.0,-93.0,1.0,0,100.0,0.0,1.0,0.0,0.0,1.0,1,100.0,192.0,100.0,1,1.0,0,1.0,0,1.0,0,1.0,0,1.0
89,'8',0.0,0.0,119.0,-93.0,1.0,0,100.0,0.0,1.0,0.0,0.0,1.0,1,100.0,192.0,100.0,1,1.0,0,1.0,0,1.0,0,1.0,0,1.0
89,'9',0.0,0.0,119.0,-93.0,1.0,0,100.0,0.0,1.0,0.0,0.0,1.0,1,100.0,192.0,100.0,1,1.0,0,1.0,0,1.0,0,1.0,0,1.0
90,'1',0.0,0.0,319.5,-319.5,1.0,0,100.0,0.0,1.0,0.0,0.0,1.0,1,100.0,660.0,120.0,1,1.0,0,1.0,0,1.0,0,1.0,0,1.0
91,'1',0.0,0.0,319.5,-319.5,1.0,0,100.0,0.0,1.0,0.0,0.0,1.0,1,100.0,659.5,240.0,1,1.0,0,1.0,0,1.0,0,1.0,0,1.0
91,'2',0.0,0.0,319.5,-319.5,1.0,0,100.0,0.0,1.0,0.0,0.0,1.0,1,100.0,659.5,240.0,1,1.0,0,1.0,0,1.0,0,1.0,0,1.0
92,'1',0.0,0.0,79.0,-61.8,1.0035,0,100.0,0.0,1.0,0.0,0.0,1.0,1,100.0,127.5,63.2,1,1.0,0,1.0,0,1.0,0,1.0,0,1.0
92,'10',0.0,0.0,79.0,-61.8,1.0035,0,100.0,0.0,1.0,0.0,0.0,1.0,1,100.0,127.5,63.2,1,1.0,0,1.0,0,1.0,0,1.0,0,1.0
92,'2',0.0,0.0,79.0,-61.8,1.0035,0,100.0,0.0,1.0,0.0,0.0,1.0,1,100.0,127.5,63.2,1,1.0,0,1.0,0,1.0,0,1.0,0,1.0
92,'3',0.0,0.0,79.0,-61.8,1.0035,0,100.0,0.0,1.0,0.0,0.0,1.0,1,100.0,127.5,63.2,1,1.0,0,1.0,0,1.0,0,1.0,0,1.0
92,'4',0.0,0.0,79.0,-61.8,1.0035,0,100.0,0.0,1.0,0.0,0.0,1.0,1,100.0,127.5,63.2,1,1.0,0,1.0,0,1.0,0,1.0,0,1.0
92,'5',0.0,0.0,79.0,-61.8,1.0035,0,100.0,0.0,1.0,0.0,0.0,1.0,1,100.0,127.5,63.2,1,1.0,0,1.0,0,1.0,0,1.0,0,1.0
92,'6',0.0,0.0,79.0,-61.8,1.0035,0,100.0,0.0,1.0,0.0,0.0,1.0,1,100.0,127.5,63.2,1,1.0,0,1.0,0,1.0,0,1.0,0,1.0
92,'7',0.0,0.0,79.0,-61.8,1.0035,0,100.0,0.0,1.0,0.0,0.0,1.0,1,100.0,127.5,63.2,1,1.0,0,1.0,0,1.0,0,1.0,0,1.0
92,'8',0.0,0.0,79.0,-61.8,1.0035,0,100.0,0.0,1.0,0.0,0.0,1.0,1,100.0,127.5,63.2,1,1.0,0,1.0,0,1.0,0,1.0,0,1.0
92,'9',0.0,0.0,79.0,-61.8,1.0035,0,100.0,0.0,1.0,0.0,0.0,1.0,1,100.0,127.5,63.2,1,1.0,0,1.0,0,1.0,0,1.0,0,1.0
93,'1',0.0,0.0,179.75,-153.75,1.0,0,100.0,0.0,1.0,0.0,0.0,1.0,1,100.0,317.2,95.5,1,1.0,0,1.0,0,1.0,0,1.0,0,1.0
93,'2',0.0,0.0,179.75,-153.75,1.0,0,100.0,0.0,1.0,0.0,0.0,1.0,1,100.0,317.2,95.5,1,1.0,0,1.0,0,1.0,0,1.0,0,1.0
94,'1',0.0,0.0,194.5,-152.0,1.0,0,100.0,0.0,1.0,0.0,0.0,1.0,1,100.0,314.0,155.0,1,1.0,0,1.0,0,1.0,0,1.0,0,1.0
94,'2',0.0,0.0,194.5,-152.0,1.0,0,100.0,0.0,1.0,0.0,0.0,1.0,1,100.0,314.0,155.0,1,1.0,0,1.0,0,1.0,0,1.0,0,1.0
95,'1',0.0,0.0,299.0,-299.0,1.0,0,100.0,0.0,1.0,0.0,0.0,1.0,1,100.0,617.4,250.0,1,1.0,0,1.0,0,1.0,0,1.0,0,1.0
95,'2',0.0,0.0,299.0,-299.0,1.0,0,100.0,0.0,1.0,0.0,0.0,1.0,1,100.0,617.4,250.0,1,1.0,0,1.0,0,1.0,0,1.0,0,1.0
96,'1',0.0,0.0,275.5,-275.5,1.0,0,100.0,0.0,1.0,0.0,0.0,1.0,1,100.0,569.15,149.0,1,1.0,0,1.0,0,1.0,0,1.0,0,1.0
97,'1',0.0,0.0,113.67,-88.83,1.0,0,100.0,0.0,1.0,0.0,0.0,1.0,1,100.0,183.3,47.0,1,1.0,0,1.0,0,1.0,0,1.0,0,1.0
97,'2',0.0,0.0,113.67,-88.83,1.0,0,100.0,0.0,1.0,0.0,0.0,1.0,1,100.0,183.3,47.0,1,1.0,0,1.0,0,1.0,0,1.0,0,1.0
97,'3',0.0,0.0,113.67,-88.83,1.0,0,100.0,0.0,1.0,0.0,0.0,1.0,1,100.0,183.3,47.0,1,1.0,0,1.0,0,1.0,0,1.0,0,1.0
97,'4',0.0,0.0,113.67,-88.83,1.0,0,100.0,0.0,1.0,0.0,0.0,1.0,1,100.0,183.3,47.0,1,1.0,0,1.0,0,1.0,0,1.0,0,1.0
97,'5',0.0,0.0,113.67,-88.83,1.0,0,100.0,0.0,1.0,0.0,0.0,1.0,1,100.0,183.3,47.0,1,1.0,0,1.0,0,1.0,0,1.0,0,1.0
97,'6',0.0,0.0,113.67,-88.83,1.0,0,100.0,0.0,1.0,0.0,0.0,1.0,1,100.0,183.3,47.0,1,1.0,0,1.0,0,1.0,0,1.0,0,1.0
98,'1',0.0,0.0,270.5,-243.5,1.0,0,100.0,0.0,1.0,0.0,0.0,1.0,1,100.0,502.7,255.0,1,1.0,0,1.0,0,1.0,0,1.0,0,1.0
98,'2',0.0,0.0,270.5,-243.5,1.0,0,100.0,0.0,1.0,0.0,0.0,1.0,1,100.0,502.7,255.0,1,1.0,0,1.0,0,1.0,0,1.0,0,1.0
99,'1',0.0,0.0,63.13,-49.25,1.04269,0,100.0,0.0,1.0,0.0,0.0,1.0,1,100.0,101.8,45.0,1,1.0,0,1.0,0,1.0,0,1.0,0,1.0
99,'2',0.0,0.0,63.13,-49.25,1.04269,0,100.0,0.0,1.0,0.0,0.0,1.0,1,100.0,101.8,45.0,1,1.0,0,1.0,0,1.0,0,1.0,0,1.0
99,'3',0.0,0.0,63.13,-49.25,1.04269,0,100.0,0.0,1.0,0.0,0.0,1.0,1,100.0,101.8,45.0,1,1.0,0,1.0,0,1.0,0,1.0,0,1.0
99,'4',0.0,0.0,63.13,-49.25,1.04269,0,100.0,0.0,1.0,0.0,0.0,1.0,1,100.0,101.8,45.0,1,1.0,0,1.0,0,1.0,0,1.0,0,1.0
99,'5',0.0,0.0,63.13,-49.25,1.04269,0,100.0,0.0,1.0,0.0,0.0,1.0,1,100.0,101.8,45.0,1,1.0,0,1.0,0,1.0,0,1.0,0,1.0
99,'6',0.0,0.0,63.13,-49.25,1.04269,0,100.0,0.0,1.0,0.0,0.0,1.0,1,100.0,101.8,45.0,1,1.0,0,1.0,0,1.0,0,1.0,0,1.0
...
0 / END OF GENERATOR DATA BEGIN BRANCH DATA
1,23,'1',0.14411,1.06878,0.02242,125.0,137.5,143.8,0.0,0.0,0.0,0.0,1,1,53.6,1,1.0,0,1.0,0,1.0,0,1.0
1,29,'1',0.2785,0.717,0.01112,59.0,64.9,67.8,0.0,0.0,0.0,0.0,1,1,31.0,1,1.0,0,1.0,0,1.0,0,1.0
1,80,'1',0.32697,0.76064,0.01452,59.0,64.9,67.8,0.0,0.0,0.0,0.0,1,1,36.5,1,1.0,0,1.0,0,1.0,0,1.0
1,339,'1',0.14469,1.07313,0.02251,125.0,137.5,143.8,0.0,0.0,0.0,0.0,1,1,53.8,1,1.0,0,1.0,0,1.0,0,1.0
1,349,'1',0.15311,1.15364,0.02347,125.0,137.5,143.8,0.0,0.0,0.0,0.0,1,1,57.0,1,1.0,0,1.0,0,1.0,0,1.0
1,432,'1',0.43798,0.9389,0.02129,59.0,64.9,67.8,0.0,0.0,0.0,0.0,1,1,49.0,1,1.0,0,1.0,0,1.0,0,1.0
1,433,'1',0.33757,0.78542,0.01499,59.0,64.9,67.8,0.0,0.0,0.0,0.0,1,1,37.7,1,1.0,0,1.0,0,1.0,0,1.0
1,434,'1',0.43353,1.03054,0.01892,59.0,64.9,67.8,0.0,0.0,0.0,0.0,1,1,48.5,1,1.0,0,1.0,0,1.0,0,1.0
1,435,'1',0.3914,0.89062,0.01783,59.0,64.9,67.8,0.0,0.0,0.0,0.0,1,1,43.7,1,1.0,0,1.0,0,1.0,0,1.0
1,741,'1',0.08199,0.29297,0.00582,80.0,88.0,92.0,0.0,0.0,0.0,0.0,1,1,14.3,1,1.0,0,1.0,0,1.0,0,1.0
1,742,'1',0.04558,0.16853,0.00312,80.0,88.0,92.0,0.0,0.0,0.0,0.0,1,1,7.9,1,1.0,0,1.0,0,1.0,0,1.0
1,884,'1',0.08451,0.21495,0.0034,59.0,64.9,67.8,0.0,0.0,0.0,0.0,1,1,9.4,1,1.0,0,1.0,0,1.0,0,1.0
1,885,'1',0.04538,0.29547,0.00601,115.0,126.5,132.2,0.0,0.0,0.0,0.0,1,1,14.6,1,1.0,0,1.0,0,1.0,0,1.0
1,905,'1',0.03682,0.09465,0.00146,59.0,64.9,67.8,0.0,0.0,0.0,0.0,1,1,4.1,1,1.0,0,1.0,0,1.0,0,1.0
1,906,'1',0.00645,0.04762,0.00099,160.0,160.0,160.0,0.0,0.0,0.0,0.0,1,1,2.4,1,1.0,0,1.0,0,1.0,0,1.0
2,6672,'1',0.19679,0.53504,0.12309,118.0,129.8,135.7,0.0,0.0,0.0,0.0,1,2,89.4,1,1.0,0,1.0,0,1.0,0,1.0
2,6681,'1',0.00113,0.00926,0.00595,439.0,482.9,504.9,0.0,0.0,0.0,0.0,1,1,2.6,1,1.0,0,1.0,0,1.0,0,1.0
2,7002,'1',0.01334,0.08454,0.02295,219.0,240.9,251.9,0.0,0.0,0.0,0.0,1,1,15.3,1,1.0,0,1.0,0,1.0,0,1.0
3,11,'1',0.0545,0.2618,0.00507,95.0,104.5,109.2,0.0,0.0,0.0,0.0,1,1,12.6,1,1.0,0,1.0,0,1.0,0,1.0
3,708,'1',0.04068,0.15887,0.00352,88.0,96.8,101.2,0.0,0.0,0.0,0.0,1,1,8.2,1,1.0,0,1.0,0,1.0,0,1.0
4,1006,'1',0.01303,0.10037,0.00192,125.0,137.5,143.8,0.0,0.0,0.0,0.0,1,1,4.8,1,1.0,0,1.0,0,1.0,0,1.0
4,1007,'1',0.01806,0.0442,0.00076,59.0,64.9,67.8,0.0,0.0,0.0,0.0,1,1,2.0,1,1.0,0,1.0,0,1.0,0,1.0
4,1009,'1',0.02114,0.07816,0.00145,80.0,88.0,92.0,0.0,0.0,0.0,0.0,1,1,3.7,1,1.0,0,1.0,0,1.0,0,1.0
4,1009,'2',0.02114,0.07816,0.00145,80.0,88.0,92.0,0.0,0.0,0.0,0.0,1,1,3.7,1,1.0,0,1.0,0,1.0,0,1.0
4,1010,'1',0.00449,0.0285,0.00081,125.0,137.5,143.8,0.0,0.0,0.0,0.0,1,1,1.7,1,1.0,0,1.0,0,1.0,0,1.0
4,1010,'2',0.00449,0.0285,0.00081,125.0,137.5,143.8,0.0,0.0,0.0,0.0,1,1,1.7,1,1.0,0,1.0,0,1.0,0,1.0
4,1011,'1',0.0564,0.13357,0.00244,59.0,64.9,67.8,0.0,0.0,0.0,0.0,1,1,6.3,1,1.0,0,1.0,0,1.0,0,1.0
5,1067,'1',0.00791,0.05631,0.00126,150.0,169.0,169.0,0.0,0.0,0.0,0.0,1,1,2.9,1,1.0,0,1.0,0,1.0,0,1.0
5,1070,'1',0.00393,0.02669,0.00066,125.0,137.5,143.8,0.0,0.0,0.0,0.0,1,1,1.5,1,1.0,0,1.0,0,1.0,0,1.0
5,1073,'1',0.01123,0.08295,0.00173,125.0,137.5,143.8,0.0,0.0,0.0,0.0,1,1,4.1,1,1.0,0,1.0,0,1.0,0,1.0
6,353,'1',0.07058,0.19554,0.00323,97.0,97.0,97.0,0.0,0.0,0.0,0.0,1,1,8.7,1,1.0,0,1.0,0,1.0,0,1.0
6,668,'1',0.04702,0.11959,0.00189,216.0,216.0,216.0,0.0,0.0,0.0,0.0,1,1,5.2,1,1.0,0,1.0,0,1.0,0,1.0
6,680,'1',0.0447,0.10377,0.00198,190.0,190.0,190.0,0.0,0.0,0.0,0.0,1,1,5.0,1,1.0,0,1.0,0,1.0,0,1.0
6,702,'1',0.09372,0.21262,0.00424,75.0,75.0,75.0,0.0,0.0,0.0,0.0,1,1,10.4,1,1.0,0,1.0,0,1.0,0,1.0
7,68,'1',0.01485,0.11574,0.00216,125.0,137.5,143.8,0.0,0.0,0.0,0.0,1,1,5.5,1,1.0,0,1.0,0,1.0,0,1.0
7,72,'1',0.0166,0.1182,0.00266,125.0,137.5,143.8,0.0,0.0,0.0,0.0,1,1,6.1,1,1.0,0,1.0,0,1.0,0,1.0
7,443,'1',0.01631,0.11615,0.00261,152.0,152.0,152.0,0.0,0.0,0.0,0.0,1,1,6.0,1,1.0,0,1.0,0,1.0,0,1.0
8,821,'1',0.00356,0.02257,0.00064,168.0,168.0,168.0,0.0,0.0,0.0,0.0,1,1,1.3,1,1.0,0,1.0,0,1.0,0,1.0
8,827,'1',0.00546,0.04255,0.0008,125.0,137.5,143.8,0.0,0.0,0.0,0.0,1,1,2.0,1,1.0,0,1.0,0,1.0,0,1.0
8,830,'1',0.01093,0.0556,0.00126,103.0,113.3,118.4,0.0,0.0,0.0,0.0,1,1,2.9,1,1.0,0,1.0,0,1.0,0,1.0
9,342,'1',0.11063,0.28143,0.00445,59.0,64.9,67.8,0.0,0.0,0.0,0.0,1,1,12.3,1,1.0,0,1.0,0,1.0,0,1.0
9,1048,'1',0.17769,0.59337,0.00942,71.0,78.1,81.7,0.0,0.0,0.0,0.0,1,1,25.9,1,1.0,0,1.0,0,1.0,0,1.0
9,5777,'1',0.09484,0.59629,0.01306,115.0,126.5,132.2,0.0,0.0,0.0,0.0,1,1,30.5,1,1.0,0,1.0,0,1.0,0,1.0
10,746,'1',0.07915,0.17955,0.00358,59.0,64.9,67.8,0.0,0.0,0.0,0.0,1,1,8.8,1,1.0,0,1.0,0,1.0,0,1.0
11,758,'1',0.02303,0.16399,0.00368,125.0,137.5,143.8,0.0,0.0,0.0,0.0,1,1,8.5,1,1.0,0,1.0,0,1.0,0,1.0
11,761,'1',0.01361,0.03499,0.00054,59.0,64.9,67.8,0.0,0.0,0.0,0.0,1,1,1.5,1,1.0,0,1.0,0,1.0,0,1.0
11,763,'1',0.03661,0.08961,0.00153,59.0,64.9,67.8,0.0,0.0,0.0,0.0,1,1,4.1,1,1.0,0,1.0,0,1.0,0,1.0
11,764,'1',0.01904,0.04318,0.00086,59.0,64.9,67.8,0.0,0.0,0.0,0.0,1,1,2.1,1,1.0,0,1.0,0,1.0,0,1.0
12,360,'1',0.02538,0.05891,0.00112,59.0,64.9,67.8,0.0,0.0,0.0,0.0,1,1,2.8,1,1.0,0,1.0,0,1.0,0,1.0
12,369,'1',0.01288,0.03311,0.00051,59.0,64.9,67.8,0.0,0.0,0.0,0.0,1,1,1.4,1,1.0,0,1.0,0,1.0,0,1.0
12,370,'1',0.01425,0.03308,0.00063,59.0,64.9,67.8,0.0,0.0,0.0,0.0,1,1,1.6,1,1.0,0,1.0,0,1.0,0,1.0
12,371,'1',0.01419,0.0303,0.00068,59.0,64.9,67.8,0.0,0.0,0.0,0.0,1,1,1.6,1,1.0,0,1.0,0,1.0,0,1.0
12,391,'1',0.02606,0.06699,0.00104,59.0,64.9,67.8,0.0,0.0,0.0,0.0,1,1,2.9,1,1.0,0,1.0,0,1.0,0,1.0
12,392,'1',0.05605,0.16077,0.00247,64.0,70.4,73.6,0.0,0.0,0.0,0.0,1,1,6.9,1,1.0,0,1.0,0,1.0,0,1.0
13,786,'1',0.01462,0.05747,0.01504,159.0,174.9,182.9,0.0,0.0,0.0,0.0,1,1,10.2,1,1.0,0,1.0,0,1.0,0,1.0
14,598,'1',0.04398,0.31334,0.00704,125.0,137.5,143.8,0.0,0.0,0.0,0.0,1,1,16.2,1,1.0,0,1.0,0,1.0,0,1.0
14,639,'1',0.04577,0.10382,0.00207,59.0,64.9,67.8,0.0,0.0,0.0,0.0,1,1,5.1,1,1.0,0,1.0,0,1.0,0,1.0
14,699,'1',0.00937,0.0653,0.00153,125.0,137.5,143.8,0.0,0.0,0.0,0.0,1,1,3.5,1,1.0,0,1.0,0,1.0,0,1.0
15,699,'1',0.00588,0.04585,0.00086,125.0,137.5,143.8,0.0,0.0,0.0,0.0,1,1,2.2,1,1.0,0,1.0,0,1.0,0,1.0
16,554,'1',0.1049,0.23799,0.00475,59.0,64.9,67.8,0.0,0.0,0.0,0.0,1,1,11.7,1,1.0,0,1.0,0,1.0,0,1.0
16,1076,'1',0.13214,0.31301,0.00572,59.0,64.9,67.8,0.0,0.0,0.0,0.0,1,1,14.7,1,1.0,0,1.0,0,1.0,0,1.0
17,6704,'1',0.00022,0.00149,0.01317,549.0,603.9,631.3,0.0,0.0,0.0,0.0,1,1,1.5,1,1.0,0,1.0,0,1.0,0,1.0
17,6727,'1',0.00104,0.00756,0.06093,549.0,603.9,631.3,0.0,0.0,0.0,0.0,1,1,7.4,1,1.0,0,1.0,0,1.0,0,1.0
18,503,'1',0.0152,0.06527,0.00119,88.0,96.8,101.2,0.0,0.0,0.0,0.0,1,1,3.1,1,1.0,0,1.0,0,1.0,0,1.0
18,506,'1',0.00844,0.05937,0.00118,119.0,130.9,136.9,0.0,0.0,0.0,0.0,1,1,2.9,1,1.0,0,1.0,0,1.0,0,1.0
18,661,'1',0.04177,0.16744,0.00432,92.0,101.2,105.8,0.0,0.0,0.0,0.0,1,1,9.3,1,1.0,0,1.0,0,1.0,0,1.0
19,6708,'1',0.00024,0.00556,0.10193,1921.0,2113.1,2209.1,0.0,0.0,0.0,0.0,1,1,8.3,1,1.0,0,1.0,0,1.0,0,1.0
20,553,'1',0.03705,0.07911,0.00179,59.0,64.9,67.8,0.0,0.0,0.0,0.0,1,1,4.1,1,1.0,0,1.0,0,1.0,0,1.0
20,575,'1',0.09022,0.34722,0.00593,80.0,88.0,92.0,0.0,0.0,0.0,0.0,1,1,15.7,1,1.0,0,1.0,0,1.0,0,1.0
21,37,'1',0.00371,0.02738,0.00057,125.0,137.5,143.8,0.0,0.0,0.0,0.0,1,1,1.4,1,1.0,0,1.0,0,1.0,0,1.0
21,733,'1',0.0224,0.10388,0.00216,95.0,104.5,109.2,0.0,0.0,0.0,0.0,1,1,5.2,1,1.0,0,1.0,0,1.0,0,1.0
21,736,'1',0.00472,0.03675,0.00069,125.0,137.5,143.8,0.0,0.0,0.0,0.0,1,1,1.7,1,1.0,0,1.0,0,1.0,0,1.0
21,738,'1',0.01029,0.08019,0.0015,125.0,137.5,143.8,0.0,0.0,0.0,0.0,1,1,3.8,1,1.0,0,1.0,0,1.0,0,1.0
22,417,'1',0.02534,0.0541,0.00122,59.0,64.9,67.8,0.0,0.0,0.0,0.0,1,1,2.8,1,1.0,0,1.0,0,1.0,0,1.0
22,449,'1',0.13779,0.33739,0.00577,59.0,64.9,67.8,0.0,0.0,0.0,0.0,1,1,15.3,1,1.0,0,1.0,0,1.0,0,1.0
23,349,'1',0.10166,0.25238,0.00419,59.0,64.9,67.8,0.0,0.0,0.0,0.0,1,1,11.3,1,1.0,0,1.0,0,1.0,0,1.0
23,432,'1',0.04317,0.17645,0.00357,88.0,96.8,101.2,0.0,0.0,0.0,0.0,1,1,8.7,1,1.0,0,1.0,0,1.0,0,1.0
23,568,'1',0.22168,0.55076,0.00916,59.0,64.9,67.8,0.0,0.0,0.0,0.0,1,1,24.7,1,1.0,0,1.0,0,1.0,0,1.0
24,466,'1',0.00814,0.01847,0.00037,59.0,64.9,67.8,0.0,0.0,0.0,0.0,1,1,0.9,1,1.0,0,1.0,0,1.0,0,1.0
24,467,'1',0.03619,0.08983,0.00149,59.0,64.9,67.8,0.0,0.0,0.0,0.0,1,1,4.0,1,1.0,0,1.0,0,1.0,0,1.0
24,468,'1',0.01429,0.03498,0.0006,59.0,64.9,67.8,0.0,0.0,0.0,0.0,1,1,1.6,1,1.0,0,1.0,0,1.0,0,1.0
24,469,'1',0.00564,0.03832,0.00095,125.0,137.5,143.8,0.0,0.0,0.0,0.0,1,1,2.1,1,1.0,0,1.0,0,1.0,0,1.0
24,3849,'1',0.00791,0.06091,0.00117,125.0,137.5,143.8,0.0,0.0,0.0,0.0,1,1,2.9,1,1.0,0,1.0,0,1.0,0,1.0
25,838,'1',0.00997,0.07101,0.00159,125.0,137.5,143.8,0.0,0.0,0.0,0.0,1,1,3.7,1,1.0,0,1.0,0,1.0,0,1.0
25,861,'1',0.01024,0.07561,0.00158,125.0,137.5,143.8,0.0,0.0,0.0,0.0,1,1,3.8,1,1.0,0,1.0,0,1.0,0,1.0
25,1019,'1',0.02819,0.06677,0.00122,59.0,64.9,67.8,0.0,0.0,0.0,0.0,1,1,3.1,1,1.0,0,1.0,0,1.0,0,1.0
25,1022,'1',0.02977,0.18901,0.00537,125.0,137.5,143.8,0.0,0.0,0.0,0.0,1,1,11.0,1,1.0,0,1.0,0,1.0,0,1.0
26,337,'1',0.02328,0.16579,0.00372,125.0,137.5,143.8,0.0,0.0,0.0,0.0,1,1,8.6,1,1.0,0,1.0,0,1.0,0,1.0
26,568,'1',0.10838,0.25671,0.00469,59.0,64.9,67.8,0.0,0.0,0.0,0.0,1,1,12.1,1,1.0,0,1.0,0,1.0,0,1.0
27,6712,'1',0.00125,0.01702,0.03463,579.0,636.9,665.8,0.0,0.0,0.0,0.0,1,1,8.4,1,1.0,0,1.0,0,1.0,0,1.0
27,7692,'1',0.00144,0.01775,0.03561,541.0,595.1,622.2,0.0,0.0,0.0,0.0,1,1,8.8,1,1.0,0,1.0,0,1.0,0,1.0
28,800,'1',0.0097,0.0311,0.00077,80.0,88.0,92.0,0.0,0.0,0.0,0.0,1,1,1.7,1,1.0,0,1.0,0,1.0,0,1.0
28,854,'1',0.03116,0.07924,0.00125,59.0,64.9,67.8,0.0,0.0,0.0,0.0,1,1,3.5,1,1.0,0,1.0,0,1.0,0,1.0
28,877,'1',0.03413,0.08773,0.00136,59.0,64.9,67.8,0.0,0.0,0.0,0.0,1,1,3.8,1,1.0,0,1.0,0,1.0,0,1.0
29,886,'1',0.06252,0.13348,0.00301,59.0,64.9,67.8,0.0,0.0,0.0,0.0,1,1,6.9,1,1.0,0,1.0,0,1.0,0,1.0
30,428,'1',0.06488,0.13852,0.00313,59.0,64.9,67.8,0.0,0.0,0.0,0.0,1,1,7.2,1,1.0,0,1.0,0,1.0,0,1.0
30,429,'1',0.01481,0.03676,0.00061,70.0,70.0,70.0,0.0,0.0,0.0,0.0,1,1,1.6,1,1.0,0,1.0,0,1.0,0,1.0
31,6708,'1',0.00032,0.0074,0.13963,1921.0,2113.1,2209.1,0.0,0.0,0.0,0.0,1,1,11.2,1,1.0,0,1.0,0,1.0,0,1.0
31,6719,'1',0.00039,0.00657,0.14482,1877.0,2064.7,2158.6,0.0,0.0,0.0,0.0,1,1,10.8,1,1.0,0,1.0,0,1.0,0,1.0
32,578,'1',0.12098,0.28656,0.00524,59.0,64.9,67.8,0.0,0.0,0.0,0.0,1,1,13.4,1,1.0,0,1.0,0,1.0,0,1.0
33,578,'1',0.12641,0.26998,0.0061,59.0,64.9,67.8,0.0,0.0,0.0,0.0,1,1,14.1,1,1.0,0,1.0,0,1.0,0,1.0
34,964,'1',0.02053,0.05097,0.00085,59.0,64.9,67.8,0.0,0.0,0.0,0.0,1,1,2.3,1,1.0,0,1.0,0,1.0,0,1.0
34,3590,'1',0.03217,0.0879,0.00149,64.0,70.4,73.6,0.0,0.0,0.0,0.0,1,1,4.0,1,1.0,0,1.0,0,1.0,0,1.0
34,3591,'1',0.0171,0.04244,0.00071,59.0,64.9,67.8,0.0,0.0,0.0,0.0,1,1,1.9,1,1.0,0,1.0,0,1.0,0,1.0
35,814,'1',0.00346,0.02259,0.00052,149.0,149.0,149.0,0.0,0.0,0.0,0.0,1,1,1.2,1,1.0,0,1.0,0,1.0,0,1.0
35,824,'1',0.01586,0.03387,0.00076,59.0,64.9,67.8,0.0,0.0,0.0,0.0,1,1,1.8,1,1.0,0,1.0,0,1.0,0,1.0
35,825,'1',0.00518,0.02284,0.0004,88.0,96.8,101.2,0.0,0.0,0.0,0.0,1,1,1.0,1,1.0,0,1.0,0,1.0,0,1.0
36,62,'1',0.00243,0.01732,0.00039,125.0,137.5,143.8,0.0,0.0,0.0,0.0,1,1,0.9,1,1.0,0,1.0,0,1.0,0,1.0
36,660,'1',0.03837,0.27331,0.00614,125.0,137.5,143.8,0.0,0.0,0.0,0.0,1,1,14.2,1,1.0,0,1.0,0,1.0,0,1.0
36,2837,'1',0.06212,0.17208,0.00284,64.0,70.4,73.6,0.0,0.0,0.0,0.0,1,1,7.7,1,1.0,0,1.0,0,1.0,0,1.0
36,2838,'1',0.00948,0.04572,0.00081,92.0,101.2,105.8,0.0,0.0,0.0,0.0,1,1,2.1,1,1.0,0,1.0,0,1.0,0,1.0
37,739,'1',0.00422,0.02867,0.00071,125.0,137.5,143.8,0.0,0.0,0.0,0.0,1,1,1.6,1,1.0,0,1.0,0,1.0,0,1.0
38,450,'1',0.12757,0.31236,0.00534,59.0,64.9,67.8,0.0,0.0,0.0,0.0,1,1,14.2,1,1.0,0,1.0,0,1.0,0,1.0
38,450,'2',0.12757,0.31236,0.00534,59.0,64.9,67.8,0.0,0.0,0.0,0.0,1,1,14.2,1,1.0,0,1.0,0,1.0,0,1.0
38,595,'1',0.09338,0.1994,0.0045,65.0,71.0,74.0,0.0,0.0,0.0,0.0,1,1,10.4,1,1.0,0,1.0,0,1.0,0,1.0
38,595,'2',0.09338,0.1994,0.0045,65.0,71.0,74.0,0.0,0.0,0.0,0.0,1,1,10.4,1,1.0,0,1.0,0,1.0,0,1.0
39,54,'1',0.0072,0.02317,0.00039,71.0,78.1,81.7,0.0,0.0,0.0,0.0,1,1,1.0,1,1.0,0,1.0,0,1.0,0,1.0
39,976,'1',0.01416,0.05678,0.00146,92.0,101.2,105.8,0.0,0.0,0.0,0.0,1,1,3.2,1,1.0,0,1.0,0,1.0,0,1.0
39,977,'1',0.0088,0.02237,0.00035,59.0,64.9,67.8,0.0,0.0,0.0,0.0,1,1,1.0,1,1.0,0,1.0,0,1.0,0,1.0
40,63,'1',0.13176,0.32263,0.00552,59.0,64.9,67.8,0.0,0.0,0.0,0.0,1,1,14.6,1,1.0,0,1.0,0,1.0,0,1.0
40,66,'1',0.06517,0.15128,0.00288,59.0,64.9,67.8,0.0,0.0,0.0,0.0,1,1,7.2,1,1.0,0,1.0,0,1.0,0,1.0
41,4871,'1',0.0278,0.05935,0.00134,59.0,64.9,67.8,0.0,0.0,0.0,0.0,1,1,3.1,1,1.0,0,1.0,0,1.0,0,1.0
41,4872,'1',0.02035,0.04346,0.00098,59.0,64.9,67.8,0.0,0.0,0.0,0.0,1,1,2.3,1,1.0,0,1.0,0,1.0,0,1.0
42,213,'1',0.31063,0.76181,0.01305,59.0,64.9,67.8,0.0,0.0,0.0,0.0,1,1,34.6,1,1.0,0,1.0,0,1.0,0,1.0
42,455,'1',0.18576,0.42165,0.00842,59.0,64.9,67.8,0.0,0.0,0.0,0.0,1,1,20.7,1,1.0,0,1.0,0,1.0,0,1.0
43,428,'1',0.0964,0.23601,0.00404,59.0,64.9,67.8,0.0,0.0,0.0,0.0,1,1,10.7,1,1.0,0,1.0,0,1.0,0,1.0
43,477,'1',0.08833,0.22711,0.00352,59.0,64.9,67.8,0.0,0.0,0.0,0.0,1,1,9.8,1,1.0,0,1.0,0,1.0,0,1.0
44,1075,'1',0.02483,0.07475,0.0234,142.0,156.2,163.3,0.0,0.0,0.0,0.0,1,1,14.4,1,1.0,0,1.0,0,1.0,0,1.0
44,6685,'1',0.00592,0.08699,0.02662,384.0,422.4,441.6,0.0,0.0,0.0,0.0,1,2,16.6,1,1.0,0,1.0,0,1.0,0,1.0
45,448,'1',0.00942,0.03144,0.0005,71.0,78.1,81.7,0.0,0.0,0.0,0.0,1,1,1.4,1,1.0,0,1.0,0,1.0,0,1.0
45,745,'1',0.05101,0.39773,0.00744,125.0,137.5,143.8,0.0,0.0,0.0,0.0,1,1,18.8,1,1.0,0,1.0,0,1.0,0,1.0
46,1002,'1',0.01088,0.04231,0.00071,80.0,88.0,92.0,0.0,0.0,0.0,0.0,1,1,1.9,1,1.0,0,1.0,0,1.0,0,1.0
47,691,'1',0.00254,0.01983,0.00037,148.0,148.0,148.0,0.0,0.0,0.0,0.0,1,1,0.9,1,1.0,0,1.0,0,1.0,0,1.0
47,697,'1',0.00499,0.01843,0.00034,162.0,162.0,162.0,0.0,0.0,0.0,0.0,1,1,0.9,1,1.0,0,1.0,0,1.0,0,1.0
48,75,'1',0.02253,0.05514,0.00094,59.0,64.9,67.8,0.0,0.0,0.0,0.0,1,1,2.5,1,1.0,0,1.0,0,1.0,0,1.0
48,460,'1',0.05792,0.13138,0.00262,59.0,64.9,67.8,0.0,0.0,0.0,0.0,1,1,6.4,1,1.0,0,1.0,0,1.0,0,1.0
48,512,'1',0.10741,0.30814,0.00474,64.0,70.4,73.6,0.0,0.0,0.0,0.0,1,1,13.2,1,1.0,0,1.0,0,1.0,0,1.0
49,417,'1',0.10792,0.25561,0.00467,59.0,64.9,67.8,0.0,0.0,0.0,0.0,1,1,12.0,1,1.0,0,1.0,0,1.0,0,1.0
49,460,'1',0.15534,0.36801,0.00673,59.0,64.9,67.8,0.0,0.0,0.0,0.0,1,1,17.3,1,1.0,0,1.0,0,1.0,0,1.0
50,6709,'1',0.0061,0.06275,0.0178,294.0,323.4,338.1,0.0,0.0,0.0,0.0,1,2,11.6,1,1.0,0,1.0,0,1.0,0,1.0
51,72,'1',0.04395,0.23609,0.00561,110.0,121.0,126.5,0.0,0.0,0.0,0.0,1,1,12.6,1,1.0,0,1.0,0,1.0,0,1.0
51,4449,'1',0.07598,0.35246,0.00733,95.0,104.5,109.2,0.0,0.0,0.0,0.0,1,1,17.6,1,1.0,0,1.0,0,1.0,0,1.0
52,504,'1',0.01434,0.03395,0.00062,59.0,64.9,67.8,0.0,0.0,0.0,0.0,1,1,1.6,1,1.0,0,1.0,0,1.0,0,1.0
52,505,'1',0.00822,0.0209,0.00033,59.0,64.9,67.8,0.0,0.0,0.0,0.0,1,1,0.9,1,1.0,0,1.0,0,1.0,0,1.0
52,2845,'1',0.0909,0.22567,0.00375,59.0,64.9,67.8,0.0,0.0,0.0,0.0,1,1,10.1,1,1.0,0,1.0,0,1.0,0,1.0
53,504,'1',0.01156,0.02738,0.0005,59.0,64.9,67.8,0.0,0.0,0.0,0.0,1,1,1.3,1,1.0,0,1.0,0,1.0,0,1.0
53,506,'1',0.01649,0.04037,0.00069,59.0,64.9,67.8,0.0,0.0,0.0,0.0,1,1,1.8,1,1.0,0,1.0,0,1.0,0,1.0
53,507,'1',0.01339,0.03107,0.00059,59.0,64.9,67.8,0.0,0.0,0.0,0.0,1,1,1.5,1,1.0,0,1.0,0,1.0,0,1.0
54,983,'1',0.01405,0.03488,0.00058,59.0,64.9,67.8,0.0,0.0,0.0,0.0,1,1,1.6,1,1.0,0,1.0,0,1.0,0,1.0
54,986,'1',0.02362,0.06008,0.00095,59.0,64.9,67.8,0.0,0.0,0.0,0.0,1,1,2.6,1,1.0,0,1.0,0,1.0,0,1.0
55,452,'1',0.14791,0.3435,0.00654,59.0,64.9,67.8,0.0,0.0,0.0,0.0,1,1,16.5,1,1.0,0,1.0,0,1.0,0,1.0
55,550,'1',0.01528,0.03885,0.00061,59.0,64.9,67.8,0.0,0.0,0.0,0.0,1,1,1.7,1,1.0,0,1.0,0,1.0,0,1.0
56,6942,'1',0.00048,0.0052,0.01008,491.0,540.1,564.7,0.0,0.0,0.0,0.0,1,1,2.5,1,1.0,0,1.0,0,1.0,0,1.0
56,6945,'1',0.00043,0.00439,0.00863,473.0,520.3,544.0,0.0,0.0,0.0,0.0,1,1,2.1,1,1.0,0,1.0,0,1.0,0,1.0
57,514,'1',0.00949,0.02414,0.00038,59.0,64.9,67.8,0.0,0.0,0.0,0.0,1,1,1.0,1,1.0,0,1.0,0,1.0,0,1.0
57,516,'1',0.00271,0.02032,0.00041,125.0,137.5,143.8,0.0,0.0,0.0,0.0,1,1,1.0,1,1.0,0,1.0,0,1.0,0,1.0
57,519,'1',0.00365,0.02541,0.0006,125.0,137.5,143.8,0.0,0.0,0.0,0.0,1,1,1.4,1,1.0,0,1.0,0,1.0,0,1.0
57,520,'1',0.0195,0.04527,0.00086,59.0,64.9,67.8,0.0,0.0,0.0,0.0,1,1,2.2,1,1.0,0,1.0,0,1.0,0,1.0
57,521,'1',0.02741,0.06804,0.00113,59.0,64.9,67.8,0.0,0.0,0.0,0.0,1,1,3.0,1,1.0,0,1.0,0,1.0,0,1.0
57,527,'1',0.02633,0.09876,0.00178,80.0,88.0,92.0,0.0,0.0,0.0,0.0,1,1,4.6,1,1.0,0,1.0,0,1.0,0,1.0
57,532,'1',0.05769,0.14674,0.00232,59.0,64.9,67.8,0.0,0.0,0.0,0.0,1,1,6.4,1,1.0,0,1.0,0,1.0,0,1.0
57,537,'1',0.20495,0.52727,0.00817,59.0,64.9,67.8,0.0,0.0,0.0,0.0,1,1,22.8,1,1.0,0,1.0,0,1.0,0,1.0
58,77,'1',0.05097,0.2364,0.00491,95.0,104.5,109.2,0.0,0.0,0.0,0.0,1,1,11.8,1,1.0,0,1.0,0,1.0,0,1.0
58,4436,'1',0.13514,0.34752,0.00538,59.0,64.9,67.8,0.0,0.0,0.0,0.0,1,1,15.0,1,1.0,0,1.0,0,1.0,0,1.0
...